(PID.TID 0000.0001) 
(PID.TID 0000.0001) // ======================================================
(PID.TID 0000.0001) //                      MITgcm UV
(PID.TID 0000.0001) //                      =========
(PID.TID 0000.0001) // ======================================================
(PID.TID 0000.0001) // execution environment starting up...
(PID.TID 0000.0001) 
(PID.TID 0000.0001) // MITgcmUV version:  checkpoint68n
(PID.TID 0000.0001) // Build user:        u301673
(PID.TID 0000.0001) // Build host:        levante3.lvt.dkrz.de
(PID.TID 0000.0001) // Build date:        ن أبريل 10 22:41:24 CEST 2023
(PID.TID 0000.0001) 
(PID.TID 0000.0001) // =======================================================
(PID.TID 0000.0001) // Execution Environment parameter file "eedata"
(PID.TID 0000.0001) // =======================================================
(PID.TID 0000.0001) ># Example "eedata" file
(PID.TID 0000.0001) ># Lines beginning "#" are comments
(PID.TID 0000.0001) >#  nTx      :: No. threads per process in X
(PID.TID 0000.0001) >#  nTy      :: No. threads per process in Y
(PID.TID 0000.0001) ># debugMode :: print debug msg (sequence of S/R calls)
(PID.TID 0000.0001) > &EEPARMS
(PID.TID 0000.0001) > nTx=1,
(PID.TID 0000.0001) > nTy=1,
(PID.TID 0000.0001) >### useCubedSphereExchange=.true.,
(PID.TID 0000.0001) >
(PID.TID 0000.0001) > useSETRLSTK=.TRUE.,
(PID.TID 0000.0001) > debugMode=.TRUE.,
(PID.TID 0000.0001) > &
(PID.TID 0000.0001) ># Note: Some systems use & as the namelist terminator (as shown here).
(PID.TID 0000.0001) >#       Other systems use a / character.
(PID.TID 0000.0001) 
(PID.TID 0000.0001) // =======================================================
(PID.TID 0000.0001) // Computational Grid Specification ( see files "SIZE.h" )
(PID.TID 0000.0001) //                                  ( and "eedata"       )
(PID.TID 0000.0001) // =======================================================
(PID.TID 0000.0001)      nPx =   46 ; /* No. processes in X */
(PID.TID 0000.0001)      nPy =   36 ; /* No. processes in Y */
(PID.TID 0000.0001)      nSx =    1 ; /* No. tiles in X per process */
(PID.TID 0000.0001)      nSy =    1 ; /* No. tiles in Y per process */
(PID.TID 0000.0001)      sNx =   20 ; /* Tile size in X */
(PID.TID 0000.0001)      sNy =   20 ; /* Tile size in Y */
(PID.TID 0000.0001)      OLx =    4 ; /* Tile overlap distance in X */
(PID.TID 0000.0001)      OLy =    4 ; /* Tile overlap distance in Y */
(PID.TID 0000.0001)      nTx =    1 ; /* No. threads in X per process */
(PID.TID 0000.0001)      nTy =    1 ; /* No. threads in Y per process */
(PID.TID 0000.0001)       Nr =   50 ; /* No. levels in the vertical   */
(PID.TID 0000.0001)       Nx =  920 ; /* Total domain size in X ( = nPx*nSx*sNx ) */
(PID.TID 0000.0001)       Ny =  720 ; /* Total domain size in Y ( = nPy*nSy*sNy ) */
(PID.TID 0000.0001)   nTiles =    1 ; /* Total no. tiles per process ( = nSx*nSy ) */
(PID.TID 0000.0001)   nProcs = 1656 ; /* Total no. processes ( = nPx*nPy ) */
(PID.TID 0000.0001) nThreads =    1 ; /* Total no. threads per process ( = nTx*nTy ) */
(PID.TID 0000.0001) usingMPI =    T ; /* Flag used to control whether MPI is in use */
(PID.TID 0000.0001)                   /*  note: To execute a program with MPI calls */
(PID.TID 0000.0001)                   /*  it must be launched appropriately e.g     */
(PID.TID 0000.0001)                   /*  "mpirun -np 64 ......"                    */
(PID.TID 0000.0001) useCoupler=   F ; /* Flag used to control communications with   */
(PID.TID 0000.0001)                   /*  other model components, through a coupler */
(PID.TID 0000.0001) useNest2W_parent =    F ;/* Control 2-W Nesting comm */
(PID.TID 0000.0001) useNest2W_child  =    F ;/* Control 2-W Nesting comm */
(PID.TID 0000.0001) debugMode =    T ; /* print debug msg. (sequence of S/R calls)  */
(PID.TID 0000.0001) printMapIncludesZeros=    F ; /* print zeros in Std.Output maps */
(PID.TID 0000.0001) maxLengthPrt1D=   65 /* maxLength of 1D array printed to StdOut */
(PID.TID 0000.0001) 
(PID.TID 0000.0001) ======= Starting MPI parallel Run =========
(PID.TID 0000.0001)  My Processor Name (len: 18 ) = l20310.lvt.dkrz.de
(PID.TID 0000.0001)  Located at (   0,   0) on processor grid (0:  45,0:  35)
(PID.TID 0000.0001)  Origin at  (     1,     1) on global grid (1:   920,1:   720)
(PID.TID 0000.0001)  North neighbor = processor 0001
(PID.TID 0000.0001)  South neighbor = processor 0035
(PID.TID 0000.0001)   East neighbor = processor 0036
(PID.TID 0000.0001)   West neighbor = processor 1620
(PID.TID 0000.0001) // ======================================================
(PID.TID 0000.0001) // Mapping of tiles to threads
(PID.TID 0000.0001) // ======================================================
(PID.TID 0000.0001) // -o- Thread   1, tiles (   1:   1,   1:   1)
(PID.TID 0000.0001) 
(PID.TID 0000.0001) W2_READPARMS: opening data.exch2
(PID.TID 0000.0001)  OPEN_COPY_DATA_FILE: opening file data.exch2
(PID.TID 0000.0001) // =======================================================
(PID.TID 0000.0001) // Parameter file "data.exch2"
(PID.TID 0000.0001) // =======================================================
(PID.TID 0000.0001) ># EXCH2 Package: Wrapper-2 User Choice
(PID.TID 0000.0001) >#--------------------
(PID.TID 0000.0001) >#  preDefTopol   :: pre-defined Topology selector:
(PID.TID 0000.0001) >#                :: = 0 : topology defined from processing "data.exch2";
(PID.TID 0000.0001) >#                :: = 1 : simple, single facet topology;
(PID.TID 0000.0001) >#                :: = 2 : customized topology (w2_set_myown_facets)
(PID.TID 0000.0001) >#                :: = 3 : 6-facet Cube (3 face-dims: nRed, nGreen, nBlue).
(PID.TID 0000.0001) >#  dimsFacets    :: facet pair of dimensions (n1x,n1y, n2x,n2y ...)
(PID.TID 0000.0001) >#  facetEdgeLink :: Face-Edge connectivity map:
(PID.TID 0000.0001) >#    facetEdgeLink(i,j)=XX.1 : face(j)-edge(i) (i=1,2,3,4 <==> N,S,E,W)
(PID.TID 0000.0001) >#    is connected to Northern edge of face "XX" ; similarly,
(PID.TID 0000.0001) >#    = XX.2 : to Southern.E, XX.3 = Eastern.E, XX.4 = Western.E of face "XX"
(PID.TID 0000.0001) >#  blankList     :: List of "blank" tiles
(PID.TID 0000.0001) >#  W2_mapIO      :: global map IO selector (-1 = old type ; 0 = 1 long line in X
(PID.TID 0000.0001) >#                :: 1 = compact, mostly in Y dir)
(PID.TID 0000.0001) >#  W2_printMsg   :: option for information messages printing
(PID.TID 0000.0001) >#                :: <0 : write to log file ; =0 : minimum print ;
(PID.TID 0000.0001) >#                :: =1 : no duplicated print ; =2 : all processes do print
(PID.TID 0000.0001) >#--------------------
(PID.TID 0000.0001) > &W2_EXCH2_PARM01
(PID.TID 0000.0001) ># W2_printMsg= 1,
(PID.TID 0000.0001) ># preDefTopol= 0,
(PID.TID 0000.0001) >  W2_mapIO   = 1,
(PID.TID 0000.0001) >  blankList  = 101,
(PID.TID 0000.0001) >  201,
(PID.TID 0000.0001) >  301,
(PID.TID 0000.0001) >  401,
(PID.TID 0000.0001) >  501,
(PID.TID 0000.0001) >  601,
(PID.TID 0000.0001) >  701,
(PID.TID 0000.0001) >  801,
(PID.TID 0000.0001) >  901,
(PID.TID 0000.0001) >  1001,
(PID.TID 0000.0001) >  1101,
(PID.TID 0000.0001) >  1201,
(PID.TID 0000.0001) >  1301,
(PID.TID 0000.0001) >  1401,
(PID.TID 0000.0001) >  1501,
(PID.TID 0000.0001) >  1601,
(PID.TID 0000.0001) >  1701,
(PID.TID 0000.0001) >  1801,
(PID.TID 0000.0001) >  1901,
(PID.TID 0000.0001) >  2001,
(PID.TID 0000.0001) >  2101,
(PID.TID 0000.0001) >  2201,
(PID.TID 0000.0001) >  2301,
(PID.TID 0000.0001) >  2401,
(PID.TID 0000.0001) >  2501,
(PID.TID 0000.0001) >  2601,
(PID.TID 0000.0001) >  2701,
(PID.TID 0000.0001) >  2801,
(PID.TID 0000.0001) >  2901,
(PID.TID 0000.0001) >  3001,
(PID.TID 0000.0001) >  3101,
(PID.TID 0000.0001) >  3201,
(PID.TID 0000.0001) >  3301,
(PID.TID 0000.0001) >  3401,
(PID.TID 0000.0001) >  3501,
(PID.TID 0000.0001) >  3601,
(PID.TID 0000.0001) >  3701,
(PID.TID 0000.0001) >  3801,
(PID.TID 0000.0001) >  3901,
(PID.TID 0000.0001) >  4001,
(PID.TID 0000.0001) >  4101,
(PID.TID 0000.0001) >  4201,
(PID.TID 0000.0001) >  4301,
(PID.TID 0000.0001) >  4401,
(PID.TID 0000.0001) >  4501,
(PID.TID 0000.0001) >  4601,
(PID.TID 0000.0001) >  4701,
(PID.TID 0000.0001) >  4801,
(PID.TID 0000.0001) >  4901,
(PID.TID 0000.0001) >  5001,
(PID.TID 0000.0001) >  5101,
(PID.TID 0000.0001) >  5201,
(PID.TID 0000.0001) >  5301,
(PID.TID 0000.0001) >  5401,
(PID.TID 0000.0001) >  5501,
(PID.TID 0000.0001) >  5601,
(PID.TID 0000.0001) >  5701,
(PID.TID 0000.0001) >  5801,
(PID.TID 0000.0001) >  5901,
(PID.TID 0000.0001) >  6001,
(PID.TID 0000.0001) >  6101,
(PID.TID 0000.0001) >  6201,
(PID.TID 0000.0001) >  6301,
(PID.TID 0000.0001) >  6401,
(PID.TID 0000.0001) >  6501,
(PID.TID 0000.0001) >  6601,
(PID.TID 0000.0001) >  6701,
(PID.TID 0000.0001) >  6801,
(PID.TID 0000.0001) >  6901,
(PID.TID 0000.0001) >  7001,
(PID.TID 0000.0001) >  7101,
(PID.TID 0000.0001) >  7201,
(PID.TID 0000.0001) >  7301,
(PID.TID 0000.0001) >  7401,
(PID.TID 0000.0001) >  7501,
(PID.TID 0000.0001) >  7601,
(PID.TID 0000.0001) >  7701,
(PID.TID 0000.0001) >  7801,
(PID.TID 0000.0001) >  7901,
(PID.TID 0000.0001) >  8001,
(PID.TID 0000.0001) >  8101,
(PID.TID 0000.0001) >  8201,
(PID.TID 0000.0001) >  8301,
(PID.TID 0000.0001) >  8401,
(PID.TID 0000.0001) >  8501,
(PID.TID 0000.0001) >  8601,
(PID.TID 0000.0001) >  8701,
(PID.TID 0000.0001) >  8801,
(PID.TID 0000.0001) >  8901,
(PID.TID 0000.0001) >  9001,
(PID.TID 0000.0001) >  9101,
(PID.TID 0000.0001) >  9201,
(PID.TID 0000.0001) >  9301,
(PID.TID 0000.0001) >  9401,
(PID.TID 0000.0001) >  9501,
(PID.TID 0000.0001) >  9601,
(PID.TID 0000.0001) >  9701,
(PID.TID 0000.0001) >  9801,
(PID.TID 0000.0001) >  9901,
(PID.TID 0000.0001) >  2,
(PID.TID 0000.0001) >  102,
(PID.TID 0000.0001) >  202,
(PID.TID 0000.0001) >  302,
(PID.TID 0000.0001) >  402,
(PID.TID 0000.0001) >  502,
(PID.TID 0000.0001) >  602,
(PID.TID 0000.0001) >  702,
(PID.TID 0000.0001) >  802,
(PID.TID 0000.0001) >  902,
(PID.TID 0000.0001) >  1002,
(PID.TID 0000.0001) >  1102,
(PID.TID 0000.0001) >  1202,
(PID.TID 0000.0001) >  1302,
(PID.TID 0000.0001) >  1402,
(PID.TID 0000.0001) >  1502,
(PID.TID 0000.0001) >  1602,
(PID.TID 0000.0001) >  1702,
(PID.TID 0000.0001) >  1802,
(PID.TID 0000.0001) >  1902,
(PID.TID 0000.0001) >  2002,
(PID.TID 0000.0001) >  2102,
(PID.TID 0000.0001) >  2202,
(PID.TID 0000.0001) >  2302,
(PID.TID 0000.0001) >  2402,
(PID.TID 0000.0001) >  2502,
(PID.TID 0000.0001) >  2602,
(PID.TID 0000.0001) >  2702,
(PID.TID 0000.0001) >  2802,
(PID.TID 0000.0001) >  2902,
(PID.TID 0000.0001) >  3002,
(PID.TID 0000.0001) >  3102,
(PID.TID 0000.0001) >  3202,
(PID.TID 0000.0001) >  3302,
(PID.TID 0000.0001) >  3402,
(PID.TID 0000.0001) >  3502,
(PID.TID 0000.0001) >  3602,
(PID.TID 0000.0001) >  3702,
(PID.TID 0000.0001) >  3802,
(PID.TID 0000.0001) >  3902,
(PID.TID 0000.0001) >  4002,
(PID.TID 0000.0001) >  4102,
(PID.TID 0000.0001) >  4202,
(PID.TID 0000.0001) >  4302,
(PID.TID 0000.0001) >  4402,
(PID.TID 0000.0001) >  4502,
(PID.TID 0000.0001) >  4602,
(PID.TID 0000.0001) >  4702,
(PID.TID 0000.0001) >  4802,
(PID.TID 0000.0001) >  4902,
(PID.TID 0000.0001) >  5002,
(PID.TID 0000.0001) >  5102,
(PID.TID 0000.0001) >  5202,
(PID.TID 0000.0001) >  5302,
(PID.TID 0000.0001) >  5402,
(PID.TID 0000.0001) >  5502,
(PID.TID 0000.0001) >  5602,
(PID.TID 0000.0001) >  5702,
(PID.TID 0000.0001) >  5802,
(PID.TID 0000.0001) >  5902,
(PID.TID 0000.0001) >  6002,
(PID.TID 0000.0001) >  6102,
(PID.TID 0000.0001) >  6202,
(PID.TID 0000.0001) >  6302,
(PID.TID 0000.0001) >  6402,
(PID.TID 0000.0001) >  6502,
(PID.TID 0000.0001) >  6602,
(PID.TID 0000.0001) >  6702,
(PID.TID 0000.0001) >  6802,
(PID.TID 0000.0001) >  6902,
(PID.TID 0000.0001) >  7002,
(PID.TID 0000.0001) >  7102,
(PID.TID 0000.0001) >  7202,
(PID.TID 0000.0001) >  7302,
(PID.TID 0000.0001) >  7402,
(PID.TID 0000.0001) >  7502,
(PID.TID 0000.0001) >  7602,
(PID.TID 0000.0001) >  7702,
(PID.TID 0000.0001) >  7802,
(PID.TID 0000.0001) >  7902,
(PID.TID 0000.0001) >  8002,
(PID.TID 0000.0001) >  8102,
(PID.TID 0000.0001) >  8202,
(PID.TID 0000.0001) >  8302,
(PID.TID 0000.0001) >  8402,
(PID.TID 0000.0001) >  8502,
(PID.TID 0000.0001) >  8602,
(PID.TID 0000.0001) >  8702,
(PID.TID 0000.0001) >  8802,
(PID.TID 0000.0001) >  8902,
(PID.TID 0000.0001) >  9002,
(PID.TID 0000.0001) >  9102,
(PID.TID 0000.0001) >  9202,
(PID.TID 0000.0001) >  9302,
(PID.TID 0000.0001) >  9402,
(PID.TID 0000.0001) >  9502,
(PID.TID 0000.0001) >  9602,
(PID.TID 0000.0001) >  9702,
(PID.TID 0000.0001) >  9802,
(PID.TID 0000.0001) >  9902,
(PID.TID 0000.0001) >  3,
(PID.TID 0000.0001) >  103,
(PID.TID 0000.0001) >  203,
(PID.TID 0000.0001) >  303,
(PID.TID 0000.0001) >  403,
(PID.TID 0000.0001) >  503,
(PID.TID 0000.0001) >  603,
(PID.TID 0000.0001) >  703,
(PID.TID 0000.0001) >  803,
(PID.TID 0000.0001) >  903,
(PID.TID 0000.0001) >  1003,
(PID.TID 0000.0001) >  1103,
(PID.TID 0000.0001) >  1203,
(PID.TID 0000.0001) >  1303,
(PID.TID 0000.0001) >  1403,
(PID.TID 0000.0001) >  1503,
(PID.TID 0000.0001) >  1603,
(PID.TID 0000.0001) >  1703,
(PID.TID 0000.0001) >  1803,
(PID.TID 0000.0001) >  1903,
(PID.TID 0000.0001) >  2003,
(PID.TID 0000.0001) >  2103,
(PID.TID 0000.0001) >  2203,
(PID.TID 0000.0001) >  2303,
(PID.TID 0000.0001) >  2403,
(PID.TID 0000.0001) >  2503,
(PID.TID 0000.0001) >  2603,
(PID.TID 0000.0001) >  2703,
(PID.TID 0000.0001) >  2803,
(PID.TID 0000.0001) >  2903,
(PID.TID 0000.0001) >  3003,
(PID.TID 0000.0001) >  3103,
(PID.TID 0000.0001) >  3203,
(PID.TID 0000.0001) >  3303,
(PID.TID 0000.0001) >  3403,
(PID.TID 0000.0001) >  3503,
(PID.TID 0000.0001) >  3603,
(PID.TID 0000.0001) >  3703,
(PID.TID 0000.0001) >  3803,
(PID.TID 0000.0001) >  3903,
(PID.TID 0000.0001) >  4003,
(PID.TID 0000.0001) >  4103,
(PID.TID 0000.0001) >  4203,
(PID.TID 0000.0001) >  4303,
(PID.TID 0000.0001) >  4403,
(PID.TID 0000.0001) >  4503,
(PID.TID 0000.0001) >  4603,
(PID.TID 0000.0001) >  4703,
(PID.TID 0000.0001) >  4803,
(PID.TID 0000.0001) >  4903,
(PID.TID 0000.0001) >  5003,
(PID.TID 0000.0001) >  5103,
(PID.TID 0000.0001) >  5203,
(PID.TID 0000.0001) >  5303,
(PID.TID 0000.0001) >  5403,
(PID.TID 0000.0001) >  5503,
(PID.TID 0000.0001) >  5603,
(PID.TID 0000.0001) >  5703,
(PID.TID 0000.0001) >  5803,
(PID.TID 0000.0001) >  5903,
(PID.TID 0000.0001) >  6003,
(PID.TID 0000.0001) >  6103,
(PID.TID 0000.0001) >  6203,
(PID.TID 0000.0001) >  6303,
(PID.TID 0000.0001) >  6403,
(PID.TID 0000.0001) >  6503,
(PID.TID 0000.0001) >  6603,
(PID.TID 0000.0001) >  6703,
(PID.TID 0000.0001) >  6803,
(PID.TID 0000.0001) >  6903,
(PID.TID 0000.0001) >  7003,
(PID.TID 0000.0001) >  7103,
(PID.TID 0000.0001) >  7203,
(PID.TID 0000.0001) >  7303,
(PID.TID 0000.0001) >  7403,
(PID.TID 0000.0001) >  7503,
(PID.TID 0000.0001) >  7603,
(PID.TID 0000.0001) >  7703,
(PID.TID 0000.0001) >  7803,
(PID.TID 0000.0001) >  7903,
(PID.TID 0000.0001) >  8003,
(PID.TID 0000.0001) >  8103,
(PID.TID 0000.0001) >  8203,
(PID.TID 0000.0001) >  8303,
(PID.TID 0000.0001) >  8403,
(PID.TID 0000.0001) >  8503,
(PID.TID 0000.0001) >  8603,
(PID.TID 0000.0001) >  8703,
(PID.TID 0000.0001) >  8803,
(PID.TID 0000.0001) >  8903,
(PID.TID 0000.0001) >  9003,
(PID.TID 0000.0001) >  9103,
(PID.TID 0000.0001) >  9203,
(PID.TID 0000.0001) >  9303,
(PID.TID 0000.0001) >  9403,
(PID.TID 0000.0001) >  9503,
(PID.TID 0000.0001) >  9603,
(PID.TID 0000.0001) >  9703,
(PID.TID 0000.0001) >  9803,
(PID.TID 0000.0001) >  9903,
(PID.TID 0000.0001) >  4,
(PID.TID 0000.0001) >  104,
(PID.TID 0000.0001) >  204,
(PID.TID 0000.0001) >  304,
(PID.TID 0000.0001) >  404,
(PID.TID 0000.0001) >  504,
(PID.TID 0000.0001) >  604,
(PID.TID 0000.0001) >  704,
(PID.TID 0000.0001) >  804,
(PID.TID 0000.0001) >  904,
(PID.TID 0000.0001) >  1004,
(PID.TID 0000.0001) >  1104,
(PID.TID 0000.0001) >  1204,
(PID.TID 0000.0001) >  1304,
(PID.TID 0000.0001) >  1404,
(PID.TID 0000.0001) >  1504,
(PID.TID 0000.0001) >  1604,
(PID.TID 0000.0001) >  1704,
(PID.TID 0000.0001) >  1804,
(PID.TID 0000.0001) >  1904,
(PID.TID 0000.0001) >  2004,
(PID.TID 0000.0001) >  2104,
(PID.TID 0000.0001) >  2204,
(PID.TID 0000.0001) >  2304,
(PID.TID 0000.0001) >  2404,
(PID.TID 0000.0001) >  2504,
(PID.TID 0000.0001) >  2604,
(PID.TID 0000.0001) >  2704,
(PID.TID 0000.0001) >  2804,
(PID.TID 0000.0001) >  2904,
(PID.TID 0000.0001) >  3004,
(PID.TID 0000.0001) >  3104,
(PID.TID 0000.0001) >  3204,
(PID.TID 0000.0001) >  3304,
(PID.TID 0000.0001) >  3404,
(PID.TID 0000.0001) >  3504,
(PID.TID 0000.0001) >  3604,
(PID.TID 0000.0001) >  3704,
(PID.TID 0000.0001) >  3804,
(PID.TID 0000.0001) >  3904,
(PID.TID 0000.0001) >  4004,
(PID.TID 0000.0001) >  4104,
(PID.TID 0000.0001) >  4204,
(PID.TID 0000.0001) >  4304,
(PID.TID 0000.0001) >  4404,
(PID.TID 0000.0001) >  4504,
(PID.TID 0000.0001) >  4604,
(PID.TID 0000.0001) >  4704,
(PID.TID 0000.0001) >  4804,
(PID.TID 0000.0001) >  4904,
(PID.TID 0000.0001) >  5004,
(PID.TID 0000.0001) >  5104,
(PID.TID 0000.0001) >  5204,
(PID.TID 0000.0001) >  5304,
(PID.TID 0000.0001) >  5404,
(PID.TID 0000.0001) >  5504,
(PID.TID 0000.0001) >  5604,
(PID.TID 0000.0001) >  5704,
(PID.TID 0000.0001) >  5804,
(PID.TID 0000.0001) >  5904,
(PID.TID 0000.0001) >  6004,
(PID.TID 0000.0001) >  6104,
(PID.TID 0000.0001) >  6204,
(PID.TID 0000.0001) >  6304,
(PID.TID 0000.0001) >  6404,
(PID.TID 0000.0001) >  6504,
(PID.TID 0000.0001) >  6604,
(PID.TID 0000.0001) >  6704,
(PID.TID 0000.0001) >  6804,
(PID.TID 0000.0001) >  6904,
(PID.TID 0000.0001) >  7004,
(PID.TID 0000.0001) >  7104,
(PID.TID 0000.0001) >  7204,
(PID.TID 0000.0001) >  7304,
(PID.TID 0000.0001) >  7404,
(PID.TID 0000.0001) >  7504,
(PID.TID 0000.0001) >  7604,
(PID.TID 0000.0001) >  7704,
(PID.TID 0000.0001) >  7804,
(PID.TID 0000.0001) >  7904,
(PID.TID 0000.0001) >  8004,
(PID.TID 0000.0001) >  8104,
(PID.TID 0000.0001) >  8204,
(PID.TID 0000.0001) >  8304,
(PID.TID 0000.0001) >  8404,
(PID.TID 0000.0001) >  8504,
(PID.TID 0000.0001) >  8604,
(PID.TID 0000.0001) >  8704,
(PID.TID 0000.0001) >  8804,
(PID.TID 0000.0001) >  8904,
(PID.TID 0000.0001) >  9004,
(PID.TID 0000.0001) >  9104,
(PID.TID 0000.0001) >  9204,
(PID.TID 0000.0001) >  9304,
(PID.TID 0000.0001) >  9404,
(PID.TID 0000.0001) >  9504,
(PID.TID 0000.0001) >  9604,
(PID.TID 0000.0001) >  9704,
(PID.TID 0000.0001) >  9804,
(PID.TID 0000.0001) >  9904,
(PID.TID 0000.0001) >  5,
(PID.TID 0000.0001) >  105,
(PID.TID 0000.0001) >  205,
(PID.TID 0000.0001) >  305,
(PID.TID 0000.0001) >  405,
(PID.TID 0000.0001) >  505,
(PID.TID 0000.0001) >  605,
(PID.TID 0000.0001) >  705,
(PID.TID 0000.0001) >  805,
(PID.TID 0000.0001) >  905,
(PID.TID 0000.0001) >  1005,
(PID.TID 0000.0001) >  1105,
(PID.TID 0000.0001) >  1205,
(PID.TID 0000.0001) >  1305,
(PID.TID 0000.0001) >  1405,
(PID.TID 0000.0001) >  1505,
(PID.TID 0000.0001) >  1605,
(PID.TID 0000.0001) >  1705,
(PID.TID 0000.0001) >  1805,
(PID.TID 0000.0001) >  1905,
(PID.TID 0000.0001) >  2005,
(PID.TID 0000.0001) >  2105,
(PID.TID 0000.0001) >  2205,
(PID.TID 0000.0001) >  2305,
(PID.TID 0000.0001) >  2405,
(PID.TID 0000.0001) >  2505,
(PID.TID 0000.0001) >  2605,
(PID.TID 0000.0001) >  2705,
(PID.TID 0000.0001) >  2805,
(PID.TID 0000.0001) >  2905,
(PID.TID 0000.0001) >  3005,
(PID.TID 0000.0001) >  3105,
(PID.TID 0000.0001) >  3205,
(PID.TID 0000.0001) >  3305,
(PID.TID 0000.0001) >  3405,
(PID.TID 0000.0001) >  3505,
(PID.TID 0000.0001) >  3605,
(PID.TID 0000.0001) >  3705,
(PID.TID 0000.0001) >  3805,
(PID.TID 0000.0001) >  3905,
(PID.TID 0000.0001) >  4005,
(PID.TID 0000.0001) >  4105,
(PID.TID 0000.0001) >  4205,
(PID.TID 0000.0001) >  4305,
(PID.TID 0000.0001) >  4405,
(PID.TID 0000.0001) >  4505,
(PID.TID 0000.0001) >  4605,
(PID.TID 0000.0001) >  4705,
(PID.TID 0000.0001) >  4805,
(PID.TID 0000.0001) >  4905,
(PID.TID 0000.0001) >  5005,
(PID.TID 0000.0001) >  5105,
(PID.TID 0000.0001) >  5205,
(PID.TID 0000.0001) >  5305,
(PID.TID 0000.0001) >  5405,
(PID.TID 0000.0001) >  5505,
(PID.TID 0000.0001) >  5605,
(PID.TID 0000.0001) >  5705,
(PID.TID 0000.0001) >  5805,
(PID.TID 0000.0001) >  5905,
(PID.TID 0000.0001) >  6005,
(PID.TID 0000.0001) >  6105,
(PID.TID 0000.0001) >  6205,
(PID.TID 0000.0001) >  6305,
(PID.TID 0000.0001) >  6405,
(PID.TID 0000.0001) >  6505,
(PID.TID 0000.0001) >  6605,
(PID.TID 0000.0001) >  6705,
(PID.TID 0000.0001) >  6805,
(PID.TID 0000.0001) >  6905,
(PID.TID 0000.0001) >  7005,
(PID.TID 0000.0001) >  7105,
(PID.TID 0000.0001) >  7205,
(PID.TID 0000.0001) >  7305,
(PID.TID 0000.0001) >  7405,
(PID.TID 0000.0001) >  7505,
(PID.TID 0000.0001) >  7605,
(PID.TID 0000.0001) >  7705,
(PID.TID 0000.0001) >  7805,
(PID.TID 0000.0001) >  7905,
(PID.TID 0000.0001) >  8005,
(PID.TID 0000.0001) >  8105,
(PID.TID 0000.0001) >  8205,
(PID.TID 0000.0001) >  8305,
(PID.TID 0000.0001) >  8405,
(PID.TID 0000.0001) >  8505,
(PID.TID 0000.0001) >  8605,
(PID.TID 0000.0001) >  8705,
(PID.TID 0000.0001) >  8805,
(PID.TID 0000.0001) >  8905,
(PID.TID 0000.0001) >  9005,
(PID.TID 0000.0001) >  9105,
(PID.TID 0000.0001) >  9205,
(PID.TID 0000.0001) >  9305,
(PID.TID 0000.0001) >  9405,
(PID.TID 0000.0001) >  9505,
(PID.TID 0000.0001) >  9605,
(PID.TID 0000.0001) >  9705,
(PID.TID 0000.0001) >  9805,
(PID.TID 0000.0001) >  9905,
(PID.TID 0000.0001) >  6,
(PID.TID 0000.0001) >  106,
(PID.TID 0000.0001) >  206,
(PID.TID 0000.0001) >  306,
(PID.TID 0000.0001) >  406,
(PID.TID 0000.0001) >  506,
(PID.TID 0000.0001) >  606,
(PID.TID 0000.0001) >  706,
(PID.TID 0000.0001) >  806,
(PID.TID 0000.0001) >  906,
(PID.TID 0000.0001) >  1006,
(PID.TID 0000.0001) >  1106,
(PID.TID 0000.0001) >  1206,
(PID.TID 0000.0001) >  1306,
(PID.TID 0000.0001) >  1406,
(PID.TID 0000.0001) >  1506,
(PID.TID 0000.0001) >  1606,
(PID.TID 0000.0001) >  1706,
(PID.TID 0000.0001) >  1806,
(PID.TID 0000.0001) >  1906,
(PID.TID 0000.0001) >  2006,
(PID.TID 0000.0001) >  2106,
(PID.TID 0000.0001) >  2206,
(PID.TID 0000.0001) >  2306,
(PID.TID 0000.0001) >  2406,
(PID.TID 0000.0001) >  2506,
(PID.TID 0000.0001) >  2606,
(PID.TID 0000.0001) >  2706,
(PID.TID 0000.0001) >  2806,
(PID.TID 0000.0001) >  2906,
(PID.TID 0000.0001) >  3006,
(PID.TID 0000.0001) >  3106,
(PID.TID 0000.0001) >  3206,
(PID.TID 0000.0001) >  3306,
(PID.TID 0000.0001) >  3406,
(PID.TID 0000.0001) >  3506,
(PID.TID 0000.0001) >  3606,
(PID.TID 0000.0001) >  3706,
(PID.TID 0000.0001) >  3806,
(PID.TID 0000.0001) >  3906,
(PID.TID 0000.0001) >  4006,
(PID.TID 0000.0001) >  4106,
(PID.TID 0000.0001) >  4206,
(PID.TID 0000.0001) >  4306,
(PID.TID 0000.0001) >  4406,
(PID.TID 0000.0001) >  4506,
(PID.TID 0000.0001) >  4606,
(PID.TID 0000.0001) >  4706,
(PID.TID 0000.0001) >  4806,
(PID.TID 0000.0001) >  4906,
(PID.TID 0000.0001) >  5006,
(PID.TID 0000.0001) >  5106,
(PID.TID 0000.0001) >  5206,
(PID.TID 0000.0001) >  5306,
(PID.TID 0000.0001) >  5406,
(PID.TID 0000.0001) >  5506,
(PID.TID 0000.0001) >  5606,
(PID.TID 0000.0001) >  5706,
(PID.TID 0000.0001) >  5806,
(PID.TID 0000.0001) >  5906,
(PID.TID 0000.0001) >  6006,
(PID.TID 0000.0001) >  6106,
(PID.TID 0000.0001) >  6206,
(PID.TID 0000.0001) >  6306,
(PID.TID 0000.0001) >  6406,
(PID.TID 0000.0001) >  6506,
(PID.TID 0000.0001) >  6606,
(PID.TID 0000.0001) >  6706,
(PID.TID 0000.0001) >  6806,
(PID.TID 0000.0001) >  6906,
(PID.TID 0000.0001) >  7006,
(PID.TID 0000.0001) >  7106,
(PID.TID 0000.0001) >  7206,
(PID.TID 0000.0001) >  7306,
(PID.TID 0000.0001) >  7406,
(PID.TID 0000.0001) >  7506,
(PID.TID 0000.0001) >  7606,
(PID.TID 0000.0001) >  7706,
(PID.TID 0000.0001) >  7806,
(PID.TID 0000.0001) >  7906,
(PID.TID 0000.0001) >  8006,
(PID.TID 0000.0001) >  8106,
(PID.TID 0000.0001) >  8206,
(PID.TID 0000.0001) >  8306,
(PID.TID 0000.0001) >  8406,
(PID.TID 0000.0001) >  8506,
(PID.TID 0000.0001) >  8606,
(PID.TID 0000.0001) >  8706,
(PID.TID 0000.0001) >  8806,
(PID.TID 0000.0001) >  8906,
(PID.TID 0000.0001) >  9006,
(PID.TID 0000.0001) >  9106,
(PID.TID 0000.0001) >  9206,
(PID.TID 0000.0001) >  9306,
(PID.TID 0000.0001) >  9406,
(PID.TID 0000.0001) >  9506,
(PID.TID 0000.0001) >  9606,
(PID.TID 0000.0001) >  9706,
(PID.TID 0000.0001) >  9806,
(PID.TID 0000.0001) >  9906,
(PID.TID 0000.0001) >  7,
(PID.TID 0000.0001) >  107,
(PID.TID 0000.0001) >  207,
(PID.TID 0000.0001) >  307,
(PID.TID 0000.0001) >  407,
(PID.TID 0000.0001) >  507,
(PID.TID 0000.0001) >  607,
(PID.TID 0000.0001) >  707,
(PID.TID 0000.0001) >  807,
(PID.TID 0000.0001) >  907,
(PID.TID 0000.0001) >  1007,
(PID.TID 0000.0001) >  1107,
(PID.TID 0000.0001) >  1207,
(PID.TID 0000.0001) >  1307,
(PID.TID 0000.0001) >  1407,
(PID.TID 0000.0001) >  1507,
(PID.TID 0000.0001) >  1607,
(PID.TID 0000.0001) >  1707,
(PID.TID 0000.0001) >  1807,
(PID.TID 0000.0001) >  1907,
(PID.TID 0000.0001) >  2007,
(PID.TID 0000.0001) >  2107,
(PID.TID 0000.0001) >  2207,
(PID.TID 0000.0001) >  2307,
(PID.TID 0000.0001) >  2407,
(PID.TID 0000.0001) >  2507,
(PID.TID 0000.0001) >  2607,
(PID.TID 0000.0001) >  2707,
(PID.TID 0000.0001) >  2807,
(PID.TID 0000.0001) >  2907,
(PID.TID 0000.0001) >  3007,
(PID.TID 0000.0001) >  3107,
(PID.TID 0000.0001) >  3207,
(PID.TID 0000.0001) >  3307,
(PID.TID 0000.0001) >  3407,
(PID.TID 0000.0001) >  3507,
(PID.TID 0000.0001) >  3607,
(PID.TID 0000.0001) >  3707,
(PID.TID 0000.0001) >  3807,
(PID.TID 0000.0001) >  3907,
(PID.TID 0000.0001) >  4007,
(PID.TID 0000.0001) >  4107,
(PID.TID 0000.0001) >  4207,
(PID.TID 0000.0001) >  4307,
(PID.TID 0000.0001) >  4407,
(PID.TID 0000.0001) >  4507,
(PID.TID 0000.0001) >  4607,
(PID.TID 0000.0001) >  4707,
(PID.TID 0000.0001) >  4807,
(PID.TID 0000.0001) >  4907,
(PID.TID 0000.0001) >  5007,
(PID.TID 0000.0001) >  5107,
(PID.TID 0000.0001) >  5207,
(PID.TID 0000.0001) >  5307,
(PID.TID 0000.0001) >  5407,
(PID.TID 0000.0001) >  5507,
(PID.TID 0000.0001) >  5607,
(PID.TID 0000.0001) >  5707,
(PID.TID 0000.0001) >  5807,
(PID.TID 0000.0001) >  5907,
(PID.TID 0000.0001) >  6007,
(PID.TID 0000.0001) >  6107,
(PID.TID 0000.0001) >  6207,
(PID.TID 0000.0001) >  6307,
(PID.TID 0000.0001) >  6407,
(PID.TID 0000.0001) >  6507,
(PID.TID 0000.0001) >  6607,
(PID.TID 0000.0001) >  6707,
(PID.TID 0000.0001) >  6807,
(PID.TID 0000.0001) >  6907,
(PID.TID 0000.0001) >  7007,
(PID.TID 0000.0001) >  7107,
(PID.TID 0000.0001) >  7207,
(PID.TID 0000.0001) >  7307,
(PID.TID 0000.0001) >  7407,
(PID.TID 0000.0001) >  7507,
(PID.TID 0000.0001) >  7607,
(PID.TID 0000.0001) >  7707,
(PID.TID 0000.0001) >  7807,
(PID.TID 0000.0001) >  7907,
(PID.TID 0000.0001) >  8007,
(PID.TID 0000.0001) >  8107,
(PID.TID 0000.0001) >  8207,
(PID.TID 0000.0001) >  8307,
(PID.TID 0000.0001) >  8407,
(PID.TID 0000.0001) >  8507,
(PID.TID 0000.0001) >  8607,
(PID.TID 0000.0001) >  8707,
(PID.TID 0000.0001) >  8807,
(PID.TID 0000.0001) >  8907,
(PID.TID 0000.0001) >  9007,
(PID.TID 0000.0001) >  9107,
(PID.TID 0000.0001) >  9207,
(PID.TID 0000.0001) >  9307,
(PID.TID 0000.0001) >  9407,
(PID.TID 0000.0001) >  9507,
(PID.TID 0000.0001) >  9607,
(PID.TID 0000.0001) >  9707,
(PID.TID 0000.0001) >  9807,
(PID.TID 0000.0001) >  9907,
(PID.TID 0000.0001) >  8,
(PID.TID 0000.0001) >  108,
(PID.TID 0000.0001) >  208,
(PID.TID 0000.0001) >  308,
(PID.TID 0000.0001) >  408,
(PID.TID 0000.0001) >  508,
(PID.TID 0000.0001) >  608,
(PID.TID 0000.0001) >  708,
(PID.TID 0000.0001) >  808,
(PID.TID 0000.0001) >  908,
(PID.TID 0000.0001) >  1008,
(PID.TID 0000.0001) >  1108,
(PID.TID 0000.0001) >  1208,
(PID.TID 0000.0001) >  1308,
(PID.TID 0000.0001) >  1408,
(PID.TID 0000.0001) >  1508,
(PID.TID 0000.0001) >  1608,
(PID.TID 0000.0001) >  1708,
(PID.TID 0000.0001) >  1808,
(PID.TID 0000.0001) >  1908,
(PID.TID 0000.0001) >  2008,
(PID.TID 0000.0001) >  2108,
(PID.TID 0000.0001) >  2208,
(PID.TID 0000.0001) >  2308,
(PID.TID 0000.0001) >  2408,
(PID.TID 0000.0001) >  2508,
(PID.TID 0000.0001) >  2608,
(PID.TID 0000.0001) >  2708,
(PID.TID 0000.0001) >  2808,
(PID.TID 0000.0001) >  2908,
(PID.TID 0000.0001) >  3008,
(PID.TID 0000.0001) >  3108,
(PID.TID 0000.0001) >  3208,
(PID.TID 0000.0001) >  3308,
(PID.TID 0000.0001) >  3408,
(PID.TID 0000.0001) >  3508,
(PID.TID 0000.0001) >  3608,
(PID.TID 0000.0001) >  3708,
(PID.TID 0000.0001) >  3808,
(PID.TID 0000.0001) >  3908,
(PID.TID 0000.0001) >  4008,
(PID.TID 0000.0001) >  4108,
(PID.TID 0000.0001) >  4208,
(PID.TID 0000.0001) >  4308,
(PID.TID 0000.0001) >  4408,
(PID.TID 0000.0001) >  4508,
(PID.TID 0000.0001) >  4608,
(PID.TID 0000.0001) >  4708,
(PID.TID 0000.0001) >  4808,
(PID.TID 0000.0001) >  4908,
(PID.TID 0000.0001) >  5008,
(PID.TID 0000.0001) >  5108,
(PID.TID 0000.0001) >  5208,
(PID.TID 0000.0001) >  5308,
(PID.TID 0000.0001) >  5408,
(PID.TID 0000.0001) >  5508,
(PID.TID 0000.0001) >  5608,
(PID.TID 0000.0001) >  5708,
(PID.TID 0000.0001) >  5808,
(PID.TID 0000.0001) >  5908,
(PID.TID 0000.0001) >  6008,
(PID.TID 0000.0001) >  6108,
(PID.TID 0000.0001) >  6208,
(PID.TID 0000.0001) >  6308,
(PID.TID 0000.0001) >  6408,
(PID.TID 0000.0001) >  6508,
(PID.TID 0000.0001) >  6608,
(PID.TID 0000.0001) >  6708,
(PID.TID 0000.0001) >  6808,
(PID.TID 0000.0001) >  6908,
(PID.TID 0000.0001) >  7008,
(PID.TID 0000.0001) >  7108,
(PID.TID 0000.0001) >  7208,
(PID.TID 0000.0001) >  7308,
(PID.TID 0000.0001) >  7408,
(PID.TID 0000.0001) >  7508,
(PID.TID 0000.0001) >  7608,
(PID.TID 0000.0001) >  7708,
(PID.TID 0000.0001) >  7808,
(PID.TID 0000.0001) >  7908,
(PID.TID 0000.0001) >  8008,
(PID.TID 0000.0001) >  8108,
(PID.TID 0000.0001) >  8208,
(PID.TID 0000.0001) >  8308,
(PID.TID 0000.0001) >  8408,
(PID.TID 0000.0001) >  8508,
(PID.TID 0000.0001) >  8608,
(PID.TID 0000.0001) >  8708,
(PID.TID 0000.0001) >  8808,
(PID.TID 0000.0001) >  8908,
(PID.TID 0000.0001) >  9008,
(PID.TID 0000.0001) >  9108,
(PID.TID 0000.0001) >  9208,
(PID.TID 0000.0001) >  9308,
(PID.TID 0000.0001) >  9408,
(PID.TID 0000.0001) >  9508,
(PID.TID 0000.0001) >  9608,
(PID.TID 0000.0001) >  9708,
(PID.TID 0000.0001) >  9808,
(PID.TID 0000.0001) >  9908,
(PID.TID 0000.0001) >  9,
(PID.TID 0000.0001) >  109,
(PID.TID 0000.0001) >  209,
(PID.TID 0000.0001) >  309,
(PID.TID 0000.0001) >  409,
(PID.TID 0000.0001) >  509,
(PID.TID 0000.0001) >  609,
(PID.TID 0000.0001) >  709,
(PID.TID 0000.0001) >  809,
(PID.TID 0000.0001) >  909,
(PID.TID 0000.0001) >  1009,
(PID.TID 0000.0001) >  1109,
(PID.TID 0000.0001) >  1209,
(PID.TID 0000.0001) >  1309,
(PID.TID 0000.0001) >  1409,
(PID.TID 0000.0001) >  1509,
(PID.TID 0000.0001) >  1609,
(PID.TID 0000.0001) >  1709,
(PID.TID 0000.0001) >  1809,
(PID.TID 0000.0001) >  1909,
(PID.TID 0000.0001) >  2009,
(PID.TID 0000.0001) >  2109,
(PID.TID 0000.0001) >  2209,
(PID.TID 0000.0001) >  2309,
(PID.TID 0000.0001) >  2409,
(PID.TID 0000.0001) >  2509,
(PID.TID 0000.0001) >  2609,
(PID.TID 0000.0001) >  2709,
(PID.TID 0000.0001) >  2809,
(PID.TID 0000.0001) >  2909,
(PID.TID 0000.0001) >  3009,
(PID.TID 0000.0001) >  3109,
(PID.TID 0000.0001) >  3209,
(PID.TID 0000.0001) >  3309,
(PID.TID 0000.0001) >  3409,
(PID.TID 0000.0001) >  3509,
(PID.TID 0000.0001) >  3609,
(PID.TID 0000.0001) >  3709,
(PID.TID 0000.0001) >  3809,
(PID.TID 0000.0001) >  3909,
(PID.TID 0000.0001) >  4009,
(PID.TID 0000.0001) >  4109,
(PID.TID 0000.0001) >  4209,
(PID.TID 0000.0001) >  4309,
(PID.TID 0000.0001) >  4409,
(PID.TID 0000.0001) >  4509,
(PID.TID 0000.0001) >  4609,
(PID.TID 0000.0001) >  4709,
(PID.TID 0000.0001) >  4809,
(PID.TID 0000.0001) >  4909,
(PID.TID 0000.0001) >  5009,
(PID.TID 0000.0001) >  5109,
(PID.TID 0000.0001) >  5209,
(PID.TID 0000.0001) >  5309,
(PID.TID 0000.0001) >  5409,
(PID.TID 0000.0001) >  5509,
(PID.TID 0000.0001) >  5609,
(PID.TID 0000.0001) >  5709,
(PID.TID 0000.0001) >  5809,
(PID.TID 0000.0001) >  5909,
(PID.TID 0000.0001) >  6009,
(PID.TID 0000.0001) >  6109,
(PID.TID 0000.0001) >  6209,
(PID.TID 0000.0001) >  6309,
(PID.TID 0000.0001) >  6409,
(PID.TID 0000.0001) >  6509,
(PID.TID 0000.0001) >  6609,
(PID.TID 0000.0001) >  6709,
(PID.TID 0000.0001) >  6809,
(PID.TID 0000.0001) >  6909,
(PID.TID 0000.0001) >  7009,
(PID.TID 0000.0001) >  7109,
(PID.TID 0000.0001) >  7209,
(PID.TID 0000.0001) >  7309,
(PID.TID 0000.0001) >  7409,
(PID.TID 0000.0001) >  7509,
(PID.TID 0000.0001) >  7609,
(PID.TID 0000.0001) >  7709,
(PID.TID 0000.0001) >  7809,
(PID.TID 0000.0001) >  7909,
(PID.TID 0000.0001) >  8009,
(PID.TID 0000.0001) >  8109,
(PID.TID 0000.0001) >  8209,
(PID.TID 0000.0001) >  8309,
(PID.TID 0000.0001) >  8409,
(PID.TID 0000.0001) >  8509,
(PID.TID 0000.0001) >  8609,
(PID.TID 0000.0001) >  8709,
(PID.TID 0000.0001) >  8809,
(PID.TID 0000.0001) >  8909,
(PID.TID 0000.0001) >  9009,
(PID.TID 0000.0001) >  9109,
(PID.TID 0000.0001) >  9209,
(PID.TID 0000.0001) >  9309,
(PID.TID 0000.0001) >  9409,
(PID.TID 0000.0001) >  9509,
(PID.TID 0000.0001) >  9609,
(PID.TID 0000.0001) >  9709,
(PID.TID 0000.0001) >  9809,
(PID.TID 0000.0001) >  9909,
(PID.TID 0000.0001) >  10,
(PID.TID 0000.0001) >  110,
(PID.TID 0000.0001) >  210,
(PID.TID 0000.0001) >  310,
(PID.TID 0000.0001) >  410,
(PID.TID 0000.0001) >  510,
(PID.TID 0000.0001) >  610,
(PID.TID 0000.0001) >  710,
(PID.TID 0000.0001) >  810,
(PID.TID 0000.0001) >  910,
(PID.TID 0000.0001) >  1010,
(PID.TID 0000.0001) >  1110,
(PID.TID 0000.0001) >  1210,
(PID.TID 0000.0001) >  1310,
(PID.TID 0000.0001) >  1410,
(PID.TID 0000.0001) >  1510,
(PID.TID 0000.0001) >  1610,
(PID.TID 0000.0001) >  1710,
(PID.TID 0000.0001) >  1810,
(PID.TID 0000.0001) >  1910,
(PID.TID 0000.0001) >  2010,
(PID.TID 0000.0001) >  2110,
(PID.TID 0000.0001) >  2210,
(PID.TID 0000.0001) >  2310,
(PID.TID 0000.0001) >  2410,
(PID.TID 0000.0001) >  2510,
(PID.TID 0000.0001) >  2610,
(PID.TID 0000.0001) >  2710,
(PID.TID 0000.0001) >  2810,
(PID.TID 0000.0001) >  2910,
(PID.TID 0000.0001) >  3010,
(PID.TID 0000.0001) >  3110,
(PID.TID 0000.0001) >  3210,
(PID.TID 0000.0001) >  3310,
(PID.TID 0000.0001) >  3410,
(PID.TID 0000.0001) >  3510,
(PID.TID 0000.0001) >  3610,
(PID.TID 0000.0001) >  3710,
(PID.TID 0000.0001) >  3810,
(PID.TID 0000.0001) >  3910,
(PID.TID 0000.0001) >  4010,
(PID.TID 0000.0001) >  4110,
(PID.TID 0000.0001) >  4210,
(PID.TID 0000.0001) >  4310,
(PID.TID 0000.0001) >  4410,
(PID.TID 0000.0001) >  4510,
(PID.TID 0000.0001) >  4610,
(PID.TID 0000.0001) >  4710,
(PID.TID 0000.0001) >  4810,
(PID.TID 0000.0001) >  4910,
(PID.TID 0000.0001) >  5010,
(PID.TID 0000.0001) >  5110,
(PID.TID 0000.0001) >  5210,
(PID.TID 0000.0001) >  5310,
(PID.TID 0000.0001) >  5410,
(PID.TID 0000.0001) >  5510,
(PID.TID 0000.0001) >  5610,
(PID.TID 0000.0001) >  5710,
(PID.TID 0000.0001) >  5810,
(PID.TID 0000.0001) >  5910,
(PID.TID 0000.0001) >  6010,
(PID.TID 0000.0001) >  6110,
(PID.TID 0000.0001) >  6210,
(PID.TID 0000.0001) >  6310,
(PID.TID 0000.0001) >  6410,
(PID.TID 0000.0001) >  6510,
(PID.TID 0000.0001) >  6610,
(PID.TID 0000.0001) >  6710,
(PID.TID 0000.0001) >  6810,
(PID.TID 0000.0001) >  6910,
(PID.TID 0000.0001) >  7010,
(PID.TID 0000.0001) >  7110,
(PID.TID 0000.0001) >  7210,
(PID.TID 0000.0001) >  7310,
(PID.TID 0000.0001) >  7410,
(PID.TID 0000.0001) >  7510,
(PID.TID 0000.0001) >  7610,
(PID.TID 0000.0001) >  7710,
(PID.TID 0000.0001) >  7810,
(PID.TID 0000.0001) >  7910,
(PID.TID 0000.0001) >  8010,
(PID.TID 0000.0001) >  8110,
(PID.TID 0000.0001) >  8210,
(PID.TID 0000.0001) >  8310,
(PID.TID 0000.0001) >  8410,
(PID.TID 0000.0001) >  8510,
(PID.TID 0000.0001) >  8610,
(PID.TID 0000.0001) >  8710,
(PID.TID 0000.0001) >  8810,
(PID.TID 0000.0001) >  8910,
(PID.TID 0000.0001) >  9010,
(PID.TID 0000.0001) >  9110,
(PID.TID 0000.0001) >  9210,
(PID.TID 0000.0001) >  9310,
(PID.TID 0000.0001) >  9410,
(PID.TID 0000.0001) >  9510,
(PID.TID 0000.0001) >  9610,
(PID.TID 0000.0001) >  9710,
(PID.TID 0000.0001) >  9810,
(PID.TID 0000.0001) >  9910,
(PID.TID 0000.0001) >  11,
(PID.TID 0000.0001) >  111,
(PID.TID 0000.0001) >  211,
(PID.TID 0000.0001) >  311,
(PID.TID 0000.0001) >  411,
(PID.TID 0000.0001) >  511,
(PID.TID 0000.0001) >  611,
(PID.TID 0000.0001) >  711,
(PID.TID 0000.0001) >  811,
(PID.TID 0000.0001) >  911,
(PID.TID 0000.0001) >  1011,
(PID.TID 0000.0001) >  1111,
(PID.TID 0000.0001) >  1211,
(PID.TID 0000.0001) >  1311,
(PID.TID 0000.0001) >  1411,
(PID.TID 0000.0001) >  1511,
(PID.TID 0000.0001) >  1611,
(PID.TID 0000.0001) >  1711,
(PID.TID 0000.0001) >  1811,
(PID.TID 0000.0001) >  1911,
(PID.TID 0000.0001) >  2011,
(PID.TID 0000.0001) >  2111,
(PID.TID 0000.0001) >  2211,
(PID.TID 0000.0001) >  2311,
(PID.TID 0000.0001) >  2411,
(PID.TID 0000.0001) >  2511,
(PID.TID 0000.0001) >  2611,
(PID.TID 0000.0001) >  2711,
(PID.TID 0000.0001) >  2811,
(PID.TID 0000.0001) >  2911,
(PID.TID 0000.0001) >  3011,
(PID.TID 0000.0001) >  3111,
(PID.TID 0000.0001) >  3211,
(PID.TID 0000.0001) >  3311,
(PID.TID 0000.0001) >  3411,
(PID.TID 0000.0001) >  3511,
(PID.TID 0000.0001) >  3611,
(PID.TID 0000.0001) >  3711,
(PID.TID 0000.0001) >  3811,
(PID.TID 0000.0001) >  3911,
(PID.TID 0000.0001) >  4011,
(PID.TID 0000.0001) >  4111,
(PID.TID 0000.0001) >  4211,
(PID.TID 0000.0001) >  4311,
(PID.TID 0000.0001) >  4411,
(PID.TID 0000.0001) >  4511,
(PID.TID 0000.0001) >  4611,
(PID.TID 0000.0001) >  4711,
(PID.TID 0000.0001) >  4811,
(PID.TID 0000.0001) >  4911,
(PID.TID 0000.0001) >  5011,
(PID.TID 0000.0001) >  5111,
(PID.TID 0000.0001) >  5211,
(PID.TID 0000.0001) >  5311,
(PID.TID 0000.0001) >  5411,
(PID.TID 0000.0001) >  5511,
(PID.TID 0000.0001) >  5611,
(PID.TID 0000.0001) >  5711,
(PID.TID 0000.0001) >  5811,
(PID.TID 0000.0001) >  5911,
(PID.TID 0000.0001) >  6011,
(PID.TID 0000.0001) >  6111,
(PID.TID 0000.0001) >  6211,
(PID.TID 0000.0001) >  6311,
(PID.TID 0000.0001) >  6411,
(PID.TID 0000.0001) >  6511,
(PID.TID 0000.0001) >  6611,
(PID.TID 0000.0001) >  6711,
(PID.TID 0000.0001) >  6811,
(PID.TID 0000.0001) >  6911,
(PID.TID 0000.0001) >  7011,
(PID.TID 0000.0001) >  7111,
(PID.TID 0000.0001) >  7211,
(PID.TID 0000.0001) >  7311,
(PID.TID 0000.0001) >  7411,
(PID.TID 0000.0001) >  7511,
(PID.TID 0000.0001) >  7611,
(PID.TID 0000.0001) >  7711,
(PID.TID 0000.0001) >  7811,
(PID.TID 0000.0001) >  7911,
(PID.TID 0000.0001) >  8011,
(PID.TID 0000.0001) >  8111,
(PID.TID 0000.0001) >  8211,
(PID.TID 0000.0001) >  8311,
(PID.TID 0000.0001) >  8411,
(PID.TID 0000.0001) >  8511,
(PID.TID 0000.0001) >  8611,
(PID.TID 0000.0001) >  8711,
(PID.TID 0000.0001) >  8811,
(PID.TID 0000.0001) >  8911,
(PID.TID 0000.0001) >  9011,
(PID.TID 0000.0001) >  9111,
(PID.TID 0000.0001) >  9211,
(PID.TID 0000.0001) >  9311,
(PID.TID 0000.0001) >  9411,
(PID.TID 0000.0001) >  9511,
(PID.TID 0000.0001) >  9611,
(PID.TID 0000.0001) >  9711,
(PID.TID 0000.0001) >  9811,
(PID.TID 0000.0001) >  9911,
(PID.TID 0000.0001) >  12,
(PID.TID 0000.0001) >  112,
(PID.TID 0000.0001) >  212,
(PID.TID 0000.0001) >  312,
(PID.TID 0000.0001) >  412,
(PID.TID 0000.0001) >  512,
(PID.TID 0000.0001) >  612,
(PID.TID 0000.0001) >  712,
(PID.TID 0000.0001) >  812,
(PID.TID 0000.0001) >  912,
(PID.TID 0000.0001) >  1012,
(PID.TID 0000.0001) >  1112,
(PID.TID 0000.0001) >  1212,
(PID.TID 0000.0001) >  1312,
(PID.TID 0000.0001) >  1412,
(PID.TID 0000.0001) >  1512,
(PID.TID 0000.0001) >  1612,
(PID.TID 0000.0001) >  1712,
(PID.TID 0000.0001) >  1812,
(PID.TID 0000.0001) >  1912,
(PID.TID 0000.0001) >  2012,
(PID.TID 0000.0001) >  2112,
(PID.TID 0000.0001) >  2212,
(PID.TID 0000.0001) >  2312,
(PID.TID 0000.0001) >  2412,
(PID.TID 0000.0001) >  2512,
(PID.TID 0000.0001) >  2612,
(PID.TID 0000.0001) >  2712,
(PID.TID 0000.0001) >  2812,
(PID.TID 0000.0001) >  2912,
(PID.TID 0000.0001) >  3012,
(PID.TID 0000.0001) >  3112,
(PID.TID 0000.0001) >  3212,
(PID.TID 0000.0001) >  3312,
(PID.TID 0000.0001) >  3412,
(PID.TID 0000.0001) >  3512,
(PID.TID 0000.0001) >  3612,
(PID.TID 0000.0001) >  3712,
(PID.TID 0000.0001) >  3812,
(PID.TID 0000.0001) >  3912,
(PID.TID 0000.0001) >  4012,
(PID.TID 0000.0001) >  4112,
(PID.TID 0000.0001) >  4212,
(PID.TID 0000.0001) >  4312,
(PID.TID 0000.0001) >  4412,
(PID.TID 0000.0001) >  4512,
(PID.TID 0000.0001) >  4612,
(PID.TID 0000.0001) >  4712,
(PID.TID 0000.0001) >  4812,
(PID.TID 0000.0001) >  4912,
(PID.TID 0000.0001) >  5012,
(PID.TID 0000.0001) >  5112,
(PID.TID 0000.0001) >  5212,
(PID.TID 0000.0001) >  5312,
(PID.TID 0000.0001) >  5412,
(PID.TID 0000.0001) >  5512,
(PID.TID 0000.0001) >  5612,
(PID.TID 0000.0001) >  5712,
(PID.TID 0000.0001) >  5812,
(PID.TID 0000.0001) >  5912,
(PID.TID 0000.0001) >  6012,
(PID.TID 0000.0001) >  6112,
(PID.TID 0000.0001) >  6212,
(PID.TID 0000.0001) >  6312,
(PID.TID 0000.0001) >  6412,
(PID.TID 0000.0001) >  6512,
(PID.TID 0000.0001) >  6612,
(PID.TID 0000.0001) >  6712,
(PID.TID 0000.0001) >  6812,
(PID.TID 0000.0001) >  6912,
(PID.TID 0000.0001) >  7012,
(PID.TID 0000.0001) >  7112,
(PID.TID 0000.0001) >  7212,
(PID.TID 0000.0001) >  7312,
(PID.TID 0000.0001) >  7412,
(PID.TID 0000.0001) >  7512,
(PID.TID 0000.0001) >  7612,
(PID.TID 0000.0001) >  7712,
(PID.TID 0000.0001) >  7812,
(PID.TID 0000.0001) >  7912,
(PID.TID 0000.0001) >  8012,
(PID.TID 0000.0001) >  8112,
(PID.TID 0000.0001) >  8212,
(PID.TID 0000.0001) >  8312,
(PID.TID 0000.0001) >  8412,
(PID.TID 0000.0001) >  8512,
(PID.TID 0000.0001) >  8612,
(PID.TID 0000.0001) >  8712,
(PID.TID 0000.0001) >  8812,
(PID.TID 0000.0001) >  8912,
(PID.TID 0000.0001) >  9012,
(PID.TID 0000.0001) >  9112,
(PID.TID 0000.0001) >  9212,
(PID.TID 0000.0001) >  9312,
(PID.TID 0000.0001) >  9412,
(PID.TID 0000.0001) >  9512,
(PID.TID 0000.0001) >  9612,
(PID.TID 0000.0001) >  9912,
(PID.TID 0000.0001) >  13,
(PID.TID 0000.0001) >  113,
(PID.TID 0000.0001) >  213,
(PID.TID 0000.0001) >  313,
(PID.TID 0000.0001) >  413,
(PID.TID 0000.0001) >  513,
(PID.TID 0000.0001) >  613,
(PID.TID 0000.0001) >  713,
(PID.TID 0000.0001) >  813,
(PID.TID 0000.0001) >  913,
(PID.TID 0000.0001) >  1013,
(PID.TID 0000.0001) >  1113,
(PID.TID 0000.0001) >  1213,
(PID.TID 0000.0001) >  1313,
(PID.TID 0000.0001) >  1413,
(PID.TID 0000.0001) >  1513,
(PID.TID 0000.0001) >  1613,
(PID.TID 0000.0001) >  1713,
(PID.TID 0000.0001) >  1813,
(PID.TID 0000.0001) >  1913,
(PID.TID 0000.0001) >  2013,
(PID.TID 0000.0001) >  2113,
(PID.TID 0000.0001) >  2213,
(PID.TID 0000.0001) >  2313,
(PID.TID 0000.0001) >  2413,
(PID.TID 0000.0001) >  2513,
(PID.TID 0000.0001) >  2613,
(PID.TID 0000.0001) >  2713,
(PID.TID 0000.0001) >  2813,
(PID.TID 0000.0001) >  2913,
(PID.TID 0000.0001) >  3013,
(PID.TID 0000.0001) >  3113,
(PID.TID 0000.0001) >  3213,
(PID.TID 0000.0001) >  3313,
(PID.TID 0000.0001) >  3413,
(PID.TID 0000.0001) >  3513,
(PID.TID 0000.0001) >  3613,
(PID.TID 0000.0001) >  3713,
(PID.TID 0000.0001) >  3813,
(PID.TID 0000.0001) >  3913,
(PID.TID 0000.0001) >  4013,
(PID.TID 0000.0001) >  4113,
(PID.TID 0000.0001) >  4213,
(PID.TID 0000.0001) >  4313,
(PID.TID 0000.0001) >  4413,
(PID.TID 0000.0001) >  4513,
(PID.TID 0000.0001) >  4613,
(PID.TID 0000.0001) >  4713,
(PID.TID 0000.0001) >  4813,
(PID.TID 0000.0001) >  4913,
(PID.TID 0000.0001) >  5013,
(PID.TID 0000.0001) >  5113,
(PID.TID 0000.0001) >  5213,
(PID.TID 0000.0001) >  5313,
(PID.TID 0000.0001) >  5413,
(PID.TID 0000.0001) >  5513,
(PID.TID 0000.0001) >  5613,
(PID.TID 0000.0001) >  5713,
(PID.TID 0000.0001) >  5813,
(PID.TID 0000.0001) >  5913,
(PID.TID 0000.0001) >  6013,
(PID.TID 0000.0001) >  6113,
(PID.TID 0000.0001) >  6213,
(PID.TID 0000.0001) >  6313,
(PID.TID 0000.0001) >  6413,
(PID.TID 0000.0001) >  6513,
(PID.TID 0000.0001) >  6613,
(PID.TID 0000.0001) >  6713,
(PID.TID 0000.0001) >  6813,
(PID.TID 0000.0001) >  6913,
(PID.TID 0000.0001) >  7013,
(PID.TID 0000.0001) >  7113,
(PID.TID 0000.0001) >  7213,
(PID.TID 0000.0001) >  7313,
(PID.TID 0000.0001) >  7413,
(PID.TID 0000.0001) >  7513,
(PID.TID 0000.0001) >  7613,
(PID.TID 0000.0001) >  7713,
(PID.TID 0000.0001) >  7813,
(PID.TID 0000.0001) >  7913,
(PID.TID 0000.0001) >  8013,
(PID.TID 0000.0001) >  8113,
(PID.TID 0000.0001) >  8213,
(PID.TID 0000.0001) >  8313,
(PID.TID 0000.0001) >  8413,
(PID.TID 0000.0001) >  8513,
(PID.TID 0000.0001) >  8613,
(PID.TID 0000.0001) >  8713,
(PID.TID 0000.0001) >  8813,
(PID.TID 0000.0001) >  8913,
(PID.TID 0000.0001) >  9013,
(PID.TID 0000.0001) >  9113,
(PID.TID 0000.0001) >  9213,
(PID.TID 0000.0001) >  9313,
(PID.TID 0000.0001) >  9413,
(PID.TID 0000.0001) >  9513,
(PID.TID 0000.0001) >  14,
(PID.TID 0000.0001) >  114,
(PID.TID 0000.0001) >  214,
(PID.TID 0000.0001) >  314,
(PID.TID 0000.0001) >  414,
(PID.TID 0000.0001) >  514,
(PID.TID 0000.0001) >  614,
(PID.TID 0000.0001) >  714,
(PID.TID 0000.0001) >  814,
(PID.TID 0000.0001) >  914,
(PID.TID 0000.0001) >  1014,
(PID.TID 0000.0001) >  1114,
(PID.TID 0000.0001) >  1214,
(PID.TID 0000.0001) >  1314,
(PID.TID 0000.0001) >  1414,
(PID.TID 0000.0001) >  1514,
(PID.TID 0000.0001) >  1614,
(PID.TID 0000.0001) >  1714,
(PID.TID 0000.0001) >  1814,
(PID.TID 0000.0001) >  1914,
(PID.TID 0000.0001) >  2014,
(PID.TID 0000.0001) >  2114,
(PID.TID 0000.0001) >  2214,
(PID.TID 0000.0001) >  2314,
(PID.TID 0000.0001) >  2414,
(PID.TID 0000.0001) >  2514,
(PID.TID 0000.0001) >  2614,
(PID.TID 0000.0001) >  2714,
(PID.TID 0000.0001) >  2814,
(PID.TID 0000.0001) >  2914,
(PID.TID 0000.0001) >  3014,
(PID.TID 0000.0001) >  3114,
(PID.TID 0000.0001) >  3214,
(PID.TID 0000.0001) >  3314,
(PID.TID 0000.0001) >  3414,
(PID.TID 0000.0001) >  3514,
(PID.TID 0000.0001) >  3614,
(PID.TID 0000.0001) >  3714,
(PID.TID 0000.0001) >  3814,
(PID.TID 0000.0001) >  3914,
(PID.TID 0000.0001) >  4014,
(PID.TID 0000.0001) >  4114,
(PID.TID 0000.0001) >  4214,
(PID.TID 0000.0001) >  4314,
(PID.TID 0000.0001) >  4414,
(PID.TID 0000.0001) >  4514,
(PID.TID 0000.0001) >  4614,
(PID.TID 0000.0001) >  4714,
(PID.TID 0000.0001) >  4814,
(PID.TID 0000.0001) >  4914,
(PID.TID 0000.0001) >  5014,
(PID.TID 0000.0001) >  5114,
(PID.TID 0000.0001) >  5214,
(PID.TID 0000.0001) >  5314,
(PID.TID 0000.0001) >  5414,
(PID.TID 0000.0001) >  5514,
(PID.TID 0000.0001) >  5614,
(PID.TID 0000.0001) >  5714,
(PID.TID 0000.0001) >  5814,
(PID.TID 0000.0001) >  5914,
(PID.TID 0000.0001) >  6014,
(PID.TID 0000.0001) >  6114,
(PID.TID 0000.0001) >  6214,
(PID.TID 0000.0001) >  6314,
(PID.TID 0000.0001) >  6414,
(PID.TID 0000.0001) >  6514,
(PID.TID 0000.0001) >  6614,
(PID.TID 0000.0001) >  6714,
(PID.TID 0000.0001) >  6814,
(PID.TID 0000.0001) >  6914,
(PID.TID 0000.0001) >  7014,
(PID.TID 0000.0001) >  7114,
(PID.TID 0000.0001) >  7214,
(PID.TID 0000.0001) >  7314,
(PID.TID 0000.0001) >  7414,
(PID.TID 0000.0001) >  7514,
(PID.TID 0000.0001) >  7614,
(PID.TID 0000.0001) >  7714,
(PID.TID 0000.0001) >  7814,
(PID.TID 0000.0001) >  7914,
(PID.TID 0000.0001) >  8014,
(PID.TID 0000.0001) >  8114,
(PID.TID 0000.0001) >  8214,
(PID.TID 0000.0001) >  8314,
(PID.TID 0000.0001) >  8414,
(PID.TID 0000.0001) >  8514,
(PID.TID 0000.0001) >  8614,
(PID.TID 0000.0001) >  8714,
(PID.TID 0000.0001) >  8814,
(PID.TID 0000.0001) >  8914,
(PID.TID 0000.0001) >  9014,
(PID.TID 0000.0001) >  9114,
(PID.TID 0000.0001) >  9214,
(PID.TID 0000.0001) >  15,
(PID.TID 0000.0001) >  115,
(PID.TID 0000.0001) >  215,
(PID.TID 0000.0001) >  315,
(PID.TID 0000.0001) >  415,
(PID.TID 0000.0001) >  515,
(PID.TID 0000.0001) >  615,
(PID.TID 0000.0001) >  715,
(PID.TID 0000.0001) >  815,
(PID.TID 0000.0001) >  915,
(PID.TID 0000.0001) >  1015,
(PID.TID 0000.0001) >  1115,
(PID.TID 0000.0001) >  1215,
(PID.TID 0000.0001) >  1315,
(PID.TID 0000.0001) >  1415,
(PID.TID 0000.0001) >  1515,
(PID.TID 0000.0001) >  1615,
(PID.TID 0000.0001) >  1715,
(PID.TID 0000.0001) >  1815,
(PID.TID 0000.0001) >  1915,
(PID.TID 0000.0001) >  2015,
(PID.TID 0000.0001) >  2115,
(PID.TID 0000.0001) >  2215,
(PID.TID 0000.0001) >  2315,
(PID.TID 0000.0001) >  2415,
(PID.TID 0000.0001) >  2515,
(PID.TID 0000.0001) >  2615,
(PID.TID 0000.0001) >  2715,
(PID.TID 0000.0001) >  2815,
(PID.TID 0000.0001) >  2915,
(PID.TID 0000.0001) >  3015,
(PID.TID 0000.0001) >  3115,
(PID.TID 0000.0001) >  3215,
(PID.TID 0000.0001) >  3315,
(PID.TID 0000.0001) >  3415,
(PID.TID 0000.0001) >  3515,
(PID.TID 0000.0001) >  3615,
(PID.TID 0000.0001) >  3715,
(PID.TID 0000.0001) >  3815,
(PID.TID 0000.0001) >  3915,
(PID.TID 0000.0001) >  4015,
(PID.TID 0000.0001) >  4115,
(PID.TID 0000.0001) >  4215,
(PID.TID 0000.0001) >  4315,
(PID.TID 0000.0001) >  4415,
(PID.TID 0000.0001) >  4515,
(PID.TID 0000.0001) >  4615,
(PID.TID 0000.0001) >  4715,
(PID.TID 0000.0001) >  4815,
(PID.TID 0000.0001) >  4915,
(PID.TID 0000.0001) >  5015,
(PID.TID 0000.0001) >  5115,
(PID.TID 0000.0001) >  5215,
(PID.TID 0000.0001) >  5315,
(PID.TID 0000.0001) >  5415,
(PID.TID 0000.0001) >  5515,
(PID.TID 0000.0001) >  5615,
(PID.TID 0000.0001) >  5715,
(PID.TID 0000.0001) >  5815,
(PID.TID 0000.0001) >  5915,
(PID.TID 0000.0001) >  6015,
(PID.TID 0000.0001) >  6115,
(PID.TID 0000.0001) >  6215,
(PID.TID 0000.0001) >  6315,
(PID.TID 0000.0001) >  6415,
(PID.TID 0000.0001) >  6515,
(PID.TID 0000.0001) >  6615,
(PID.TID 0000.0001) >  6715,
(PID.TID 0000.0001) >  6815,
(PID.TID 0000.0001) >  6915,
(PID.TID 0000.0001) >  7015,
(PID.TID 0000.0001) >  7115,
(PID.TID 0000.0001) >  7215,
(PID.TID 0000.0001) >  7315,
(PID.TID 0000.0001) >  7415,
(PID.TID 0000.0001) >  7515,
(PID.TID 0000.0001) >  7615,
(PID.TID 0000.0001) >  7715,
(PID.TID 0000.0001) >  7815,
(PID.TID 0000.0001) >  7915,
(PID.TID 0000.0001) >  8015,
(PID.TID 0000.0001) >  8115,
(PID.TID 0000.0001) >  8215,
(PID.TID 0000.0001) >  8315,
(PID.TID 0000.0001) >  8415,
(PID.TID 0000.0001) >  8515,
(PID.TID 0000.0001) >  8615,
(PID.TID 0000.0001) >  8715,
(PID.TID 0000.0001) >  8815,
(PID.TID 0000.0001) >  8915,
(PID.TID 0000.0001) >  9015,
(PID.TID 0000.0001) >  9115,
(PID.TID 0000.0001) >  9715,
(PID.TID 0000.0001) >  9815,
(PID.TID 0000.0001) >  9915,
(PID.TID 0000.0001) >  16,
(PID.TID 0000.0001) >  116,
(PID.TID 0000.0001) >  216,
(PID.TID 0000.0001) >  316,
(PID.TID 0000.0001) >  416,
(PID.TID 0000.0001) >  516,
(PID.TID 0000.0001) >  616,
(PID.TID 0000.0001) >  716,
(PID.TID 0000.0001) >  816,
(PID.TID 0000.0001) >  916,
(PID.TID 0000.0001) >  1016,
(PID.TID 0000.0001) >  1116,
(PID.TID 0000.0001) >  1216,
(PID.TID 0000.0001) >  1316,
(PID.TID 0000.0001) >  1416,
(PID.TID 0000.0001) >  1516,
(PID.TID 0000.0001) >  1616,
(PID.TID 0000.0001) >  1716,
(PID.TID 0000.0001) >  1816,
(PID.TID 0000.0001) >  1916,
(PID.TID 0000.0001) >  2016,
(PID.TID 0000.0001) >  2116,
(PID.TID 0000.0001) >  2216,
(PID.TID 0000.0001) >  2316,
(PID.TID 0000.0001) >  2416,
(PID.TID 0000.0001) >  2516,
(PID.TID 0000.0001) >  2616,
(PID.TID 0000.0001) >  2716,
(PID.TID 0000.0001) >  2816,
(PID.TID 0000.0001) >  2916,
(PID.TID 0000.0001) >  3016,
(PID.TID 0000.0001) >  3116,
(PID.TID 0000.0001) >  3216,
(PID.TID 0000.0001) >  3316,
(PID.TID 0000.0001) >  3416,
(PID.TID 0000.0001) >  3516,
(PID.TID 0000.0001) >  3616,
(PID.TID 0000.0001) >  3716,
(PID.TID 0000.0001) >  3816,
(PID.TID 0000.0001) >  3916,
(PID.TID 0000.0001) >  4016,
(PID.TID 0000.0001) >  4116,
(PID.TID 0000.0001) >  4216,
(PID.TID 0000.0001) >  4316,
(PID.TID 0000.0001) >  4416,
(PID.TID 0000.0001) >  4516,
(PID.TID 0000.0001) >  4616,
(PID.TID 0000.0001) >  4716,
(PID.TID 0000.0001) >  4816,
(PID.TID 0000.0001) >  4916,
(PID.TID 0000.0001) >  5016,
(PID.TID 0000.0001) >  5116,
(PID.TID 0000.0001) >  5216,
(PID.TID 0000.0001) >  5316,
(PID.TID 0000.0001) >  5416,
(PID.TID 0000.0001) >  5516,
(PID.TID 0000.0001) >  5616,
(PID.TID 0000.0001) >  5716,
(PID.TID 0000.0001) >  5816,
(PID.TID 0000.0001) >  5916,
(PID.TID 0000.0001) >  6016,
(PID.TID 0000.0001) >  6116,
(PID.TID 0000.0001) >  6216,
(PID.TID 0000.0001) >  6316,
(PID.TID 0000.0001) >  6416,
(PID.TID 0000.0001) >  6516,
(PID.TID 0000.0001) >  6616,
(PID.TID 0000.0001) >  6716,
(PID.TID 0000.0001) >  6816,
(PID.TID 0000.0001) >  6916,
(PID.TID 0000.0001) >  7016,
(PID.TID 0000.0001) >  7116,
(PID.TID 0000.0001) >  7216,
(PID.TID 0000.0001) >  7316,
(PID.TID 0000.0001) >  7416,
(PID.TID 0000.0001) >  7516,
(PID.TID 0000.0001) >  7616,
(PID.TID 0000.0001) >  7716,
(PID.TID 0000.0001) >  7816,
(PID.TID 0000.0001) >  7916,
(PID.TID 0000.0001) >  8016,
(PID.TID 0000.0001) >  8116,
(PID.TID 0000.0001) >  8216,
(PID.TID 0000.0001) >  8316,
(PID.TID 0000.0001) >  8416,
(PID.TID 0000.0001) >  8516,
(PID.TID 0000.0001) >  8616,
(PID.TID 0000.0001) >  8716,
(PID.TID 0000.0001) >  8816,
(PID.TID 0000.0001) >  8916,
(PID.TID 0000.0001) >  9016,
(PID.TID 0000.0001) >  9616,
(PID.TID 0000.0001) >  9716,
(PID.TID 0000.0001) >  9816,
(PID.TID 0000.0001) >  9916,
(PID.TID 0000.0001) >  17,
(PID.TID 0000.0001) >  117,
(PID.TID 0000.0001) >  217,
(PID.TID 0000.0001) >  317,
(PID.TID 0000.0001) >  417,
(PID.TID 0000.0001) >  517,
(PID.TID 0000.0001) >  617,
(PID.TID 0000.0001) >  717,
(PID.TID 0000.0001) >  817,
(PID.TID 0000.0001) >  917,
(PID.TID 0000.0001) >  1017,
(PID.TID 0000.0001) >  1117,
(PID.TID 0000.0001) >  1217,
(PID.TID 0000.0001) >  1317,
(PID.TID 0000.0001) >  1417,
(PID.TID 0000.0001) >  1517,
(PID.TID 0000.0001) >  1617,
(PID.TID 0000.0001) >  1717,
(PID.TID 0000.0001) >  1817,
(PID.TID 0000.0001) >  1917,
(PID.TID 0000.0001) >  2017,
(PID.TID 0000.0001) >  2117,
(PID.TID 0000.0001) >  2217,
(PID.TID 0000.0001) >  2317,
(PID.TID 0000.0001) >  2417,
(PID.TID 0000.0001) >  2517,
(PID.TID 0000.0001) >  2617,
(PID.TID 0000.0001) >  2717,
(PID.TID 0000.0001) >  2817,
(PID.TID 0000.0001) >  2917,
(PID.TID 0000.0001) >  3017,
(PID.TID 0000.0001) >  3117,
(PID.TID 0000.0001) >  3217,
(PID.TID 0000.0001) >  3317,
(PID.TID 0000.0001) >  3417,
(PID.TID 0000.0001) >  3517,
(PID.TID 0000.0001) >  3617,
(PID.TID 0000.0001) >  3717,
(PID.TID 0000.0001) >  3817,
(PID.TID 0000.0001) >  3917,
(PID.TID 0000.0001) >  4017,
(PID.TID 0000.0001) >  4117,
(PID.TID 0000.0001) >  4217,
(PID.TID 0000.0001) >  4317,
(PID.TID 0000.0001) >  4417,
(PID.TID 0000.0001) >  4517,
(PID.TID 0000.0001) >  4617,
(PID.TID 0000.0001) >  4717,
(PID.TID 0000.0001) >  4817,
(PID.TID 0000.0001) >  4917,
(PID.TID 0000.0001) >  5017,
(PID.TID 0000.0001) >  5117,
(PID.TID 0000.0001) >  5217,
(PID.TID 0000.0001) >  5317,
(PID.TID 0000.0001) >  5417,
(PID.TID 0000.0001) >  5517,
(PID.TID 0000.0001) >  5617,
(PID.TID 0000.0001) >  5717,
(PID.TID 0000.0001) >  5817,
(PID.TID 0000.0001) >  5917,
(PID.TID 0000.0001) >  6017,
(PID.TID 0000.0001) >  6117,
(PID.TID 0000.0001) >  6217,
(PID.TID 0000.0001) >  6317,
(PID.TID 0000.0001) >  6417,
(PID.TID 0000.0001) >  6517,
(PID.TID 0000.0001) >  6617,
(PID.TID 0000.0001) >  6717,
(PID.TID 0000.0001) >  6817,
(PID.TID 0000.0001) >  6917,
(PID.TID 0000.0001) >  7017,
(PID.TID 0000.0001) >  7117,
(PID.TID 0000.0001) >  7217,
(PID.TID 0000.0001) >  7317,
(PID.TID 0000.0001) >  7417,
(PID.TID 0000.0001) >  7517,
(PID.TID 0000.0001) >  7617,
(PID.TID 0000.0001) >  7717,
(PID.TID 0000.0001) >  7817,
(PID.TID 0000.0001) >  7917,
(PID.TID 0000.0001) >  8017,
(PID.TID 0000.0001) >  8117,
(PID.TID 0000.0001) >  8217,
(PID.TID 0000.0001) >  8317,
(PID.TID 0000.0001) >  8417,
(PID.TID 0000.0001) >  8517,
(PID.TID 0000.0001) >  8617,
(PID.TID 0000.0001) >  8717,
(PID.TID 0000.0001) >  8817,
(PID.TID 0000.0001) >  8917,
(PID.TID 0000.0001) >  9417,
(PID.TID 0000.0001) >  9517,
(PID.TID 0000.0001) >  9617,
(PID.TID 0000.0001) >  9717,
(PID.TID 0000.0001) >  9817,
(PID.TID 0000.0001) >  9917,
(PID.TID 0000.0001) >  18,
(PID.TID 0000.0001) >  118,
(PID.TID 0000.0001) >  218,
(PID.TID 0000.0001) >  318,
(PID.TID 0000.0001) >  418,
(PID.TID 0000.0001) >  518,
(PID.TID 0000.0001) >  618,
(PID.TID 0000.0001) >  718,
(PID.TID 0000.0001) >  818,
(PID.TID 0000.0001) >  918,
(PID.TID 0000.0001) >  1018,
(PID.TID 0000.0001) >  1118,
(PID.TID 0000.0001) >  1218,
(PID.TID 0000.0001) >  1318,
(PID.TID 0000.0001) >  1418,
(PID.TID 0000.0001) >  1518,
(PID.TID 0000.0001) >  1618,
(PID.TID 0000.0001) >  1718,
(PID.TID 0000.0001) >  1818,
(PID.TID 0000.0001) >  1918,
(PID.TID 0000.0001) >  2018,
(PID.TID 0000.0001) >  2118,
(PID.TID 0000.0001) >  2218,
(PID.TID 0000.0001) >  2318,
(PID.TID 0000.0001) >  2418,
(PID.TID 0000.0001) >  2518,
(PID.TID 0000.0001) >  2618,
(PID.TID 0000.0001) >  2718,
(PID.TID 0000.0001) >  2818,
(PID.TID 0000.0001) >  2918,
(PID.TID 0000.0001) >  3018,
(PID.TID 0000.0001) >  3118,
(PID.TID 0000.0001) >  3218,
(PID.TID 0000.0001) >  3318,
(PID.TID 0000.0001) >  3418,
(PID.TID 0000.0001) >  3518,
(PID.TID 0000.0001) >  3618,
(PID.TID 0000.0001) >  3718,
(PID.TID 0000.0001) >  3818,
(PID.TID 0000.0001) >  3918,
(PID.TID 0000.0001) >  4018,
(PID.TID 0000.0001) >  4118,
(PID.TID 0000.0001) >  4218,
(PID.TID 0000.0001) >  4318,
(PID.TID 0000.0001) >  4418,
(PID.TID 0000.0001) >  4518,
(PID.TID 0000.0001) >  4618,
(PID.TID 0000.0001) >  4718,
(PID.TID 0000.0001) >  4818,
(PID.TID 0000.0001) >  4918,
(PID.TID 0000.0001) >  5018,
(PID.TID 0000.0001) >  5118,
(PID.TID 0000.0001) >  5218,
(PID.TID 0000.0001) >  5318,
(PID.TID 0000.0001) >  5418,
(PID.TID 0000.0001) >  5518,
(PID.TID 0000.0001) >  5618,
(PID.TID 0000.0001) >  5718,
(PID.TID 0000.0001) >  5818,
(PID.TID 0000.0001) >  5918,
(PID.TID 0000.0001) >  6018,
(PID.TID 0000.0001) >  6118,
(PID.TID 0000.0001) >  6218,
(PID.TID 0000.0001) >  6318,
(PID.TID 0000.0001) >  6418,
(PID.TID 0000.0001) >  6518,
(PID.TID 0000.0001) >  6618,
(PID.TID 0000.0001) >  6718,
(PID.TID 0000.0001) >  6818,
(PID.TID 0000.0001) >  6918,
(PID.TID 0000.0001) >  7018,
(PID.TID 0000.0001) >  7118,
(PID.TID 0000.0001) >  7218,
(PID.TID 0000.0001) >  7318,
(PID.TID 0000.0001) >  7418,
(PID.TID 0000.0001) >  7518,
(PID.TID 0000.0001) >  7618,
(PID.TID 0000.0001) >  7718,
(PID.TID 0000.0001) >  7818,
(PID.TID 0000.0001) >  7918,
(PID.TID 0000.0001) >  8018,
(PID.TID 0000.0001) >  8118,
(PID.TID 0000.0001) >  8218,
(PID.TID 0000.0001) >  8318,
(PID.TID 0000.0001) >  8418,
(PID.TID 0000.0001) >  8518,
(PID.TID 0000.0001) >  8618,
(PID.TID 0000.0001) >  9218,
(PID.TID 0000.0001) >  9318,
(PID.TID 0000.0001) >  9418,
(PID.TID 0000.0001) >  9518,
(PID.TID 0000.0001) >  9618,
(PID.TID 0000.0001) >  9718,
(PID.TID 0000.0001) >  9818,
(PID.TID 0000.0001) >  9918,
(PID.TID 0000.0001) >  19,
(PID.TID 0000.0001) >  119,
(PID.TID 0000.0001) >  219,
(PID.TID 0000.0001) >  319,
(PID.TID 0000.0001) >  419,
(PID.TID 0000.0001) >  519,
(PID.TID 0000.0001) >  619,
(PID.TID 0000.0001) >  719,
(PID.TID 0000.0001) >  819,
(PID.TID 0000.0001) >  919,
(PID.TID 0000.0001) >  1019,
(PID.TID 0000.0001) >  1119,
(PID.TID 0000.0001) >  1219,
(PID.TID 0000.0001) >  1319,
(PID.TID 0000.0001) >  1419,
(PID.TID 0000.0001) >  1519,
(PID.TID 0000.0001) >  1619,
(PID.TID 0000.0001) >  1719,
(PID.TID 0000.0001) >  1819,
(PID.TID 0000.0001) >  1919,
(PID.TID 0000.0001) >  2019,
(PID.TID 0000.0001) >  2119,
(PID.TID 0000.0001) >  2219,
(PID.TID 0000.0001) >  2319,
(PID.TID 0000.0001) >  2419,
(PID.TID 0000.0001) >  2519,
(PID.TID 0000.0001) >  2619,
(PID.TID 0000.0001) >  2719,
(PID.TID 0000.0001) >  2819,
(PID.TID 0000.0001) >  2919,
(PID.TID 0000.0001) >  3019,
(PID.TID 0000.0001) >  3119,
(PID.TID 0000.0001) >  3219,
(PID.TID 0000.0001) >  3319,
(PID.TID 0000.0001) >  3419,
(PID.TID 0000.0001) >  3519,
(PID.TID 0000.0001) >  3619,
(PID.TID 0000.0001) >  3719,
(PID.TID 0000.0001) >  3819,
(PID.TID 0000.0001) >  3919,
(PID.TID 0000.0001) >  4019,
(PID.TID 0000.0001) >  4119,
(PID.TID 0000.0001) >  4219,
(PID.TID 0000.0001) >  4319,
(PID.TID 0000.0001) >  4419,
(PID.TID 0000.0001) >  4519,
(PID.TID 0000.0001) >  4619,
(PID.TID 0000.0001) >  4719,
(PID.TID 0000.0001) >  4819,
(PID.TID 0000.0001) >  4919,
(PID.TID 0000.0001) >  5019,
(PID.TID 0000.0001) >  5119,
(PID.TID 0000.0001) >  5219,
(PID.TID 0000.0001) >  5319,
(PID.TID 0000.0001) >  5419,
(PID.TID 0000.0001) >  5519,
(PID.TID 0000.0001) >  5619,
(PID.TID 0000.0001) >  5719,
(PID.TID 0000.0001) >  5819,
(PID.TID 0000.0001) >  5919,
(PID.TID 0000.0001) >  6019,
(PID.TID 0000.0001) >  6119,
(PID.TID 0000.0001) >  6219,
(PID.TID 0000.0001) >  6319,
(PID.TID 0000.0001) >  6419,
(PID.TID 0000.0001) >  6519,
(PID.TID 0000.0001) >  6619,
(PID.TID 0000.0001) >  6719,
(PID.TID 0000.0001) >  6819,
(PID.TID 0000.0001) >  6919,
(PID.TID 0000.0001) >  7019,
(PID.TID 0000.0001) >  7119,
(PID.TID 0000.0001) >  7219,
(PID.TID 0000.0001) >  7319,
(PID.TID 0000.0001) >  7419,
(PID.TID 0000.0001) >  7519,
(PID.TID 0000.0001) >  7619,
(PID.TID 0000.0001) >  7719,
(PID.TID 0000.0001) >  7819,
(PID.TID 0000.0001) >  7919,
(PID.TID 0000.0001) >  8019,
(PID.TID 0000.0001) >  8119,
(PID.TID 0000.0001) >  8219,
(PID.TID 0000.0001) >  8319,
(PID.TID 0000.0001) >  8419,
(PID.TID 0000.0001) >  8519,
(PID.TID 0000.0001) >  9219,
(PID.TID 0000.0001) >  9319,
(PID.TID 0000.0001) >  9419,
(PID.TID 0000.0001) >  9519,
(PID.TID 0000.0001) >  9619,
(PID.TID 0000.0001) >  9719,
(PID.TID 0000.0001) >  9819,
(PID.TID 0000.0001) >  9919,
(PID.TID 0000.0001) >  20,
(PID.TID 0000.0001) >  120,
(PID.TID 0000.0001) >  220,
(PID.TID 0000.0001) >  320,
(PID.TID 0000.0001) >  420,
(PID.TID 0000.0001) >  520,
(PID.TID 0000.0001) >  620,
(PID.TID 0000.0001) >  720,
(PID.TID 0000.0001) >  820,
(PID.TID 0000.0001) >  920,
(PID.TID 0000.0001) >  1020,
(PID.TID 0000.0001) >  1120,
(PID.TID 0000.0001) >  1220,
(PID.TID 0000.0001) >  1320,
(PID.TID 0000.0001) >  1420,
(PID.TID 0000.0001) >  1520,
(PID.TID 0000.0001) >  1620,
(PID.TID 0000.0001) >  1720,
(PID.TID 0000.0001) >  1820,
(PID.TID 0000.0001) >  1920,
(PID.TID 0000.0001) >  2020,
(PID.TID 0000.0001) >  2120,
(PID.TID 0000.0001) >  2220,
(PID.TID 0000.0001) >  2320,
(PID.TID 0000.0001) >  2420,
(PID.TID 0000.0001) >  2520,
(PID.TID 0000.0001) >  2620,
(PID.TID 0000.0001) >  2720,
(PID.TID 0000.0001) >  2820,
(PID.TID 0000.0001) >  2920,
(PID.TID 0000.0001) >  3020,
(PID.TID 0000.0001) >  3120,
(PID.TID 0000.0001) >  3220,
(PID.TID 0000.0001) >  3320,
(PID.TID 0000.0001) >  3420,
(PID.TID 0000.0001) >  3520,
(PID.TID 0000.0001) >  3620,
(PID.TID 0000.0001) >  3720,
(PID.TID 0000.0001) >  3820,
(PID.TID 0000.0001) >  3920,
(PID.TID 0000.0001) >  4020,
(PID.TID 0000.0001) >  4120,
(PID.TID 0000.0001) >  4220,
(PID.TID 0000.0001) >  4320,
(PID.TID 0000.0001) >  4420,
(PID.TID 0000.0001) >  4520,
(PID.TID 0000.0001) >  4620,
(PID.TID 0000.0001) >  4720,
(PID.TID 0000.0001) >  4820,
(PID.TID 0000.0001) >  4920,
(PID.TID 0000.0001) >  5020,
(PID.TID 0000.0001) >  5120,
(PID.TID 0000.0001) >  5220,
(PID.TID 0000.0001) >  5320,
(PID.TID 0000.0001) >  5420,
(PID.TID 0000.0001) >  5520,
(PID.TID 0000.0001) >  5620,
(PID.TID 0000.0001) >  5720,
(PID.TID 0000.0001) >  5820,
(PID.TID 0000.0001) >  5920,
(PID.TID 0000.0001) >  6020,
(PID.TID 0000.0001) >  6120,
(PID.TID 0000.0001) >  6220,
(PID.TID 0000.0001) >  6320,
(PID.TID 0000.0001) >  6420,
(PID.TID 0000.0001) >  6520,
(PID.TID 0000.0001) >  6620,
(PID.TID 0000.0001) >  6720,
(PID.TID 0000.0001) >  6820,
(PID.TID 0000.0001) >  6920,
(PID.TID 0000.0001) >  7020,
(PID.TID 0000.0001) >  7120,
(PID.TID 0000.0001) >  7220,
(PID.TID 0000.0001) >  7320,
(PID.TID 0000.0001) >  7420,
(PID.TID 0000.0001) >  7520,
(PID.TID 0000.0001) >  7620,
(PID.TID 0000.0001) >  7720,
(PID.TID 0000.0001) >  7820,
(PID.TID 0000.0001) >  7920,
(PID.TID 0000.0001) >  8020,
(PID.TID 0000.0001) >  8120,
(PID.TID 0000.0001) >  8220,
(PID.TID 0000.0001) >  9020,
(PID.TID 0000.0001) >  9120,
(PID.TID 0000.0001) >  9220,
(PID.TID 0000.0001) >  9320,
(PID.TID 0000.0001) >  9420,
(PID.TID 0000.0001) >  9520,
(PID.TID 0000.0001) >  9620,
(PID.TID 0000.0001) >  9720,
(PID.TID 0000.0001) >  9820,
(PID.TID 0000.0001) >  9920,
(PID.TID 0000.0001) >  21,
(PID.TID 0000.0001) >  121,
(PID.TID 0000.0001) >  221,
(PID.TID 0000.0001) >  321,
(PID.TID 0000.0001) >  421,
(PID.TID 0000.0001) >  521,
(PID.TID 0000.0001) >  621,
(PID.TID 0000.0001) >  721,
(PID.TID 0000.0001) >  821,
(PID.TID 0000.0001) >  921,
(PID.TID 0000.0001) >  1021,
(PID.TID 0000.0001) >  1121,
(PID.TID 0000.0001) >  1221,
(PID.TID 0000.0001) >  1321,
(PID.TID 0000.0001) >  1421,
(PID.TID 0000.0001) >  1521,
(PID.TID 0000.0001) >  1621,
(PID.TID 0000.0001) >  1721,
(PID.TID 0000.0001) >  1821,
(PID.TID 0000.0001) >  1921,
(PID.TID 0000.0001) >  2021,
(PID.TID 0000.0001) >  2121,
(PID.TID 0000.0001) >  2221,
(PID.TID 0000.0001) >  2321,
(PID.TID 0000.0001) >  2421,
(PID.TID 0000.0001) >  2521,
(PID.TID 0000.0001) >  2621,
(PID.TID 0000.0001) >  2721,
(PID.TID 0000.0001) >  2821,
(PID.TID 0000.0001) >  2921,
(PID.TID 0000.0001) >  3021,
(PID.TID 0000.0001) >  3121,
(PID.TID 0000.0001) >  3221,
(PID.TID 0000.0001) >  3321,
(PID.TID 0000.0001) >  3421,
(PID.TID 0000.0001) >  3521,
(PID.TID 0000.0001) >  3621,
(PID.TID 0000.0001) >  3721,
(PID.TID 0000.0001) >  3821,
(PID.TID 0000.0001) >  3921,
(PID.TID 0000.0001) >  4021,
(PID.TID 0000.0001) >  4121,
(PID.TID 0000.0001) >  4221,
(PID.TID 0000.0001) >  4321,
(PID.TID 0000.0001) >  4421,
(PID.TID 0000.0001) >  4521,
(PID.TID 0000.0001) >  4621,
(PID.TID 0000.0001) >  4721,
(PID.TID 0000.0001) >  4821,
(PID.TID 0000.0001) >  4921,
(PID.TID 0000.0001) >  5021,
(PID.TID 0000.0001) >  5121,
(PID.TID 0000.0001) >  5221,
(PID.TID 0000.0001) >  5321,
(PID.TID 0000.0001) >  5421,
(PID.TID 0000.0001) >  5521,
(PID.TID 0000.0001) >  5621,
(PID.TID 0000.0001) >  5721,
(PID.TID 0000.0001) >  5821,
(PID.TID 0000.0001) >  5921,
(PID.TID 0000.0001) >  6021,
(PID.TID 0000.0001) >  6121,
(PID.TID 0000.0001) >  6221,
(PID.TID 0000.0001) >  6321,
(PID.TID 0000.0001) >  6421,
(PID.TID 0000.0001) >  6521,
(PID.TID 0000.0001) >  6621,
(PID.TID 0000.0001) >  6721,
(PID.TID 0000.0001) >  6821,
(PID.TID 0000.0001) >  6921,
(PID.TID 0000.0001) >  7021,
(PID.TID 0000.0001) >  7121,
(PID.TID 0000.0001) >  7221,
(PID.TID 0000.0001) >  7321,
(PID.TID 0000.0001) >  7421,
(PID.TID 0000.0001) >  7521,
(PID.TID 0000.0001) >  7621,
(PID.TID 0000.0001) >  7721,
(PID.TID 0000.0001) >  7821,
(PID.TID 0000.0001) >  7921,
(PID.TID 0000.0001) >  8021,
(PID.TID 0000.0001) >  9021,
(PID.TID 0000.0001) >  9121,
(PID.TID 0000.0001) >  9221,
(PID.TID 0000.0001) >  9321,
(PID.TID 0000.0001) >  9421,
(PID.TID 0000.0001) >  9521,
(PID.TID 0000.0001) >  9621,
(PID.TID 0000.0001) >  9721,
(PID.TID 0000.0001) >  9821,
(PID.TID 0000.0001) >  9921,
(PID.TID 0000.0001) >  22,
(PID.TID 0000.0001) >  122,
(PID.TID 0000.0001) >  222,
(PID.TID 0000.0001) >  322,
(PID.TID 0000.0001) >  422,
(PID.TID 0000.0001) >  522,
(PID.TID 0000.0001) >  622,
(PID.TID 0000.0001) >  722,
(PID.TID 0000.0001) >  822,
(PID.TID 0000.0001) >  922,
(PID.TID 0000.0001) >  1022,
(PID.TID 0000.0001) >  1122,
(PID.TID 0000.0001) >  1222,
(PID.TID 0000.0001) >  1322,
(PID.TID 0000.0001) >  1422,
(PID.TID 0000.0001) >  1522,
(PID.TID 0000.0001) >  1622,
(PID.TID 0000.0001) >  1722,
(PID.TID 0000.0001) >  1822,
(PID.TID 0000.0001) >  1922,
(PID.TID 0000.0001) >  2022,
(PID.TID 0000.0001) >  2122,
(PID.TID 0000.0001) >  2222,
(PID.TID 0000.0001) >  2322,
(PID.TID 0000.0001) >  2422,
(PID.TID 0000.0001) >  2522,
(PID.TID 0000.0001) >  2622,
(PID.TID 0000.0001) >  2722,
(PID.TID 0000.0001) >  2822,
(PID.TID 0000.0001) >  2922,
(PID.TID 0000.0001) >  3022,
(PID.TID 0000.0001) >  3122,
(PID.TID 0000.0001) >  3222,
(PID.TID 0000.0001) >  3322,
(PID.TID 0000.0001) >  3422,
(PID.TID 0000.0001) >  3522,
(PID.TID 0000.0001) >  3622,
(PID.TID 0000.0001) >  3722,
(PID.TID 0000.0001) >  3822,
(PID.TID 0000.0001) >  3922,
(PID.TID 0000.0001) >  4022,
(PID.TID 0000.0001) >  4122,
(PID.TID 0000.0001) >  4222,
(PID.TID 0000.0001) >  4322,
(PID.TID 0000.0001) >  4422,
(PID.TID 0000.0001) >  4522,
(PID.TID 0000.0001) >  4622,
(PID.TID 0000.0001) >  4722,
(PID.TID 0000.0001) >  4822,
(PID.TID 0000.0001) >  4922,
(PID.TID 0000.0001) >  5022,
(PID.TID 0000.0001) >  5122,
(PID.TID 0000.0001) >  5222,
(PID.TID 0000.0001) >  5322,
(PID.TID 0000.0001) >  5422,
(PID.TID 0000.0001) >  5522,
(PID.TID 0000.0001) >  5622,
(PID.TID 0000.0001) >  5722,
(PID.TID 0000.0001) >  5822,
(PID.TID 0000.0001) >  5922,
(PID.TID 0000.0001) >  6022,
(PID.TID 0000.0001) >  6122,
(PID.TID 0000.0001) >  6222,
(PID.TID 0000.0001) >  6322,
(PID.TID 0000.0001) >  6422,
(PID.TID 0000.0001) >  6522,
(PID.TID 0000.0001) >  6622,
(PID.TID 0000.0001) >  6722,
(PID.TID 0000.0001) >  6822,
(PID.TID 0000.0001) >  6922,
(PID.TID 0000.0001) >  7022,
(PID.TID 0000.0001) >  7122,
(PID.TID 0000.0001) >  7222,
(PID.TID 0000.0001) >  7322,
(PID.TID 0000.0001) >  7422,
(PID.TID 0000.0001) >  7522,
(PID.TID 0000.0001) >  7622,
(PID.TID 0000.0001) >  7722,
(PID.TID 0000.0001) >  7822,
(PID.TID 0000.0001) >  9022,
(PID.TID 0000.0001) >  9122,
(PID.TID 0000.0001) >  9222,
(PID.TID 0000.0001) >  9322,
(PID.TID 0000.0001) >  9422,
(PID.TID 0000.0001) >  9522,
(PID.TID 0000.0001) >  9622,
(PID.TID 0000.0001) >  9722,
(PID.TID 0000.0001) >  9822,
(PID.TID 0000.0001) >  9922,
(PID.TID 0000.0001) >  23,
(PID.TID 0000.0001) >  123,
(PID.TID 0000.0001) >  223,
(PID.TID 0000.0001) >  323,
(PID.TID 0000.0001) >  423,
(PID.TID 0000.0001) >  523,
(PID.TID 0000.0001) >  623,
(PID.TID 0000.0001) >  723,
(PID.TID 0000.0001) >  823,
(PID.TID 0000.0001) >  923,
(PID.TID 0000.0001) >  1023,
(PID.TID 0000.0001) >  1123,
(PID.TID 0000.0001) >  1223,
(PID.TID 0000.0001) >  1323,
(PID.TID 0000.0001) >  1423,
(PID.TID 0000.0001) >  1523,
(PID.TID 0000.0001) >  1623,
(PID.TID 0000.0001) >  1723,
(PID.TID 0000.0001) >  1823,
(PID.TID 0000.0001) >  1923,
(PID.TID 0000.0001) >  2023,
(PID.TID 0000.0001) >  2123,
(PID.TID 0000.0001) >  2223,
(PID.TID 0000.0001) >  2323,
(PID.TID 0000.0001) >  2423,
(PID.TID 0000.0001) >  2523,
(PID.TID 0000.0001) >  2623,
(PID.TID 0000.0001) >  2723,
(PID.TID 0000.0001) >  2823,
(PID.TID 0000.0001) >  2923,
(PID.TID 0000.0001) >  3023,
(PID.TID 0000.0001) >  3123,
(PID.TID 0000.0001) >  3223,
(PID.TID 0000.0001) >  3323,
(PID.TID 0000.0001) >  3423,
(PID.TID 0000.0001) >  3523,
(PID.TID 0000.0001) >  3623,
(PID.TID 0000.0001) >  3723,
(PID.TID 0000.0001) >  3823,
(PID.TID 0000.0001) >  3923,
(PID.TID 0000.0001) >  4023,
(PID.TID 0000.0001) >  4123,
(PID.TID 0000.0001) >  4223,
(PID.TID 0000.0001) >  4323,
(PID.TID 0000.0001) >  4423,
(PID.TID 0000.0001) >  4523,
(PID.TID 0000.0001) >  4623,
(PID.TID 0000.0001) >  4723,
(PID.TID 0000.0001) >  4823,
(PID.TID 0000.0001) >  4923,
(PID.TID 0000.0001) >  5023,
(PID.TID 0000.0001) >  5123,
(PID.TID 0000.0001) >  5223,
(PID.TID 0000.0001) >  5323,
(PID.TID 0000.0001) >  5423,
(PID.TID 0000.0001) >  5523,
(PID.TID 0000.0001) >  5623,
(PID.TID 0000.0001) >  5723,
(PID.TID 0000.0001) >  5823,
(PID.TID 0000.0001) >  5923,
(PID.TID 0000.0001) >  6023,
(PID.TID 0000.0001) >  6123,
(PID.TID 0000.0001) >  6223,
(PID.TID 0000.0001) >  6323,
(PID.TID 0000.0001) >  6423,
(PID.TID 0000.0001) >  6523,
(PID.TID 0000.0001) >  6623,
(PID.TID 0000.0001) >  6723,
(PID.TID 0000.0001) >  6823,
(PID.TID 0000.0001) >  6923,
(PID.TID 0000.0001) >  7023,
(PID.TID 0000.0001) >  7123,
(PID.TID 0000.0001) >  7223,
(PID.TID 0000.0001) >  7323,
(PID.TID 0000.0001) >  7423,
(PID.TID 0000.0001) >  7523,
(PID.TID 0000.0001) >  7623,
(PID.TID 0000.0001) >  7723,
(PID.TID 0000.0001) >  9423,
(PID.TID 0000.0001) >  9523,
(PID.TID 0000.0001) >  9623,
(PID.TID 0000.0001) >  9723,
(PID.TID 0000.0001) >  9823,
(PID.TID 0000.0001) >  9923,
(PID.TID 0000.0001) >  24,
(PID.TID 0000.0001) >  124,
(PID.TID 0000.0001) >  224,
(PID.TID 0000.0001) >  324,
(PID.TID 0000.0001) >  424,
(PID.TID 0000.0001) >  524,
(PID.TID 0000.0001) >  624,
(PID.TID 0000.0001) >  724,
(PID.TID 0000.0001) >  824,
(PID.TID 0000.0001) >  924,
(PID.TID 0000.0001) >  1024,
(PID.TID 0000.0001) >  1124,
(PID.TID 0000.0001) >  1224,
(PID.TID 0000.0001) >  1324,
(PID.TID 0000.0001) >  1424,
(PID.TID 0000.0001) >  1524,
(PID.TID 0000.0001) >  1624,
(PID.TID 0000.0001) >  1724,
(PID.TID 0000.0001) >  1824,
(PID.TID 0000.0001) >  1924,
(PID.TID 0000.0001) >  2024,
(PID.TID 0000.0001) >  2124,
(PID.TID 0000.0001) >  2224,
(PID.TID 0000.0001) >  2324,
(PID.TID 0000.0001) >  2424,
(PID.TID 0000.0001) >  2524,
(PID.TID 0000.0001) >  2624,
(PID.TID 0000.0001) >  2724,
(PID.TID 0000.0001) >  2824,
(PID.TID 0000.0001) >  2924,
(PID.TID 0000.0001) >  3024,
(PID.TID 0000.0001) >  3124,
(PID.TID 0000.0001) >  3224,
(PID.TID 0000.0001) >  3324,
(PID.TID 0000.0001) >  3424,
(PID.TID 0000.0001) >  3524,
(PID.TID 0000.0001) >  3624,
(PID.TID 0000.0001) >  3724,
(PID.TID 0000.0001) >  3824,
(PID.TID 0000.0001) >  3924,
(PID.TID 0000.0001) >  4024,
(PID.TID 0000.0001) >  4124,
(PID.TID 0000.0001) >  4224,
(PID.TID 0000.0001) >  4324,
(PID.TID 0000.0001) >  4424,
(PID.TID 0000.0001) >  4524,
(PID.TID 0000.0001) >  4624,
(PID.TID 0000.0001) >  4724,
(PID.TID 0000.0001) >  4824,
(PID.TID 0000.0001) >  4924,
(PID.TID 0000.0001) >  5024,
(PID.TID 0000.0001) >  5124,
(PID.TID 0000.0001) >  5224,
(PID.TID 0000.0001) >  5324,
(PID.TID 0000.0001) >  5424,
(PID.TID 0000.0001) >  5524,
(PID.TID 0000.0001) >  5624,
(PID.TID 0000.0001) >  5724,
(PID.TID 0000.0001) >  5824,
(PID.TID 0000.0001) >  5924,
(PID.TID 0000.0001) >  6024,
(PID.TID 0000.0001) >  6124,
(PID.TID 0000.0001) >  6224,
(PID.TID 0000.0001) >  6324,
(PID.TID 0000.0001) >  6424,
(PID.TID 0000.0001) >  6524,
(PID.TID 0000.0001) >  6624,
(PID.TID 0000.0001) >  6724,
(PID.TID 0000.0001) >  6824,
(PID.TID 0000.0001) >  6924,
(PID.TID 0000.0001) >  7024,
(PID.TID 0000.0001) >  7124,
(PID.TID 0000.0001) >  7224,
(PID.TID 0000.0001) >  7324,
(PID.TID 0000.0001) >  7424,
(PID.TID 0000.0001) >  7524,
(PID.TID 0000.0001) >  9724,
(PID.TID 0000.0001) >  9824,
(PID.TID 0000.0001) >  9924,
(PID.TID 0000.0001) >  25,
(PID.TID 0000.0001) >  125,
(PID.TID 0000.0001) >  225,
(PID.TID 0000.0001) >  325,
(PID.TID 0000.0001) >  425,
(PID.TID 0000.0001) >  525,
(PID.TID 0000.0001) >  625,
(PID.TID 0000.0001) >  725,
(PID.TID 0000.0001) >  825,
(PID.TID 0000.0001) >  925,
(PID.TID 0000.0001) >  1025,
(PID.TID 0000.0001) >  1125,
(PID.TID 0000.0001) >  1225,
(PID.TID 0000.0001) >  1325,
(PID.TID 0000.0001) >  1425,
(PID.TID 0000.0001) >  1525,
(PID.TID 0000.0001) >  1625,
(PID.TID 0000.0001) >  1725,
(PID.TID 0000.0001) >  1825,
(PID.TID 0000.0001) >  1925,
(PID.TID 0000.0001) >  2025,
(PID.TID 0000.0001) >  2125,
(PID.TID 0000.0001) >  2225,
(PID.TID 0000.0001) >  2325,
(PID.TID 0000.0001) >  2425,
(PID.TID 0000.0001) >  2525,
(PID.TID 0000.0001) >  2625,
(PID.TID 0000.0001) >  2725,
(PID.TID 0000.0001) >  2825,
(PID.TID 0000.0001) >  2925,
(PID.TID 0000.0001) >  3025,
(PID.TID 0000.0001) >  3125,
(PID.TID 0000.0001) >  3225,
(PID.TID 0000.0001) >  3325,
(PID.TID 0000.0001) >  3425,
(PID.TID 0000.0001) >  3525,
(PID.TID 0000.0001) >  3625,
(PID.TID 0000.0001) >  3725,
(PID.TID 0000.0001) >  3825,
(PID.TID 0000.0001) >  3925,
(PID.TID 0000.0001) >  4025,
(PID.TID 0000.0001) >  4125,
(PID.TID 0000.0001) >  4225,
(PID.TID 0000.0001) >  4325,
(PID.TID 0000.0001) >  4425,
(PID.TID 0000.0001) >  4525,
(PID.TID 0000.0001) >  4625,
(PID.TID 0000.0001) >  4725,
(PID.TID 0000.0001) >  4825,
(PID.TID 0000.0001) >  4925,
(PID.TID 0000.0001) >  5025,
(PID.TID 0000.0001) >  5125,
(PID.TID 0000.0001) >  5225,
(PID.TID 0000.0001) >  5325,
(PID.TID 0000.0001) >  5425,
(PID.TID 0000.0001) >  5525,
(PID.TID 0000.0001) >  5625,
(PID.TID 0000.0001) >  5725,
(PID.TID 0000.0001) >  5825,
(PID.TID 0000.0001) >  5925,
(PID.TID 0000.0001) >  6025,
(PID.TID 0000.0001) >  6125,
(PID.TID 0000.0001) >  6225,
(PID.TID 0000.0001) >  6325,
(PID.TID 0000.0001) >  6425,
(PID.TID 0000.0001) >  6525,
(PID.TID 0000.0001) >  6625,
(PID.TID 0000.0001) >  6725,
(PID.TID 0000.0001) >  6825,
(PID.TID 0000.0001) >  6925,
(PID.TID 0000.0001) >  7025,
(PID.TID 0000.0001) >  7125,
(PID.TID 0000.0001) >  7225,
(PID.TID 0000.0001) >  7325,
(PID.TID 0000.0001) >  9125,
(PID.TID 0000.0001) >  9225,
(PID.TID 0000.0001) >  9825,
(PID.TID 0000.0001) >  9925,
(PID.TID 0000.0001) >  26,
(PID.TID 0000.0001) >  126,
(PID.TID 0000.0001) >  226,
(PID.TID 0000.0001) >  326,
(PID.TID 0000.0001) >  426,
(PID.TID 0000.0001) >  526,
(PID.TID 0000.0001) >  626,
(PID.TID 0000.0001) >  726,
(PID.TID 0000.0001) >  826,
(PID.TID 0000.0001) >  926,
(PID.TID 0000.0001) >  1026,
(PID.TID 0000.0001) >  1126,
(PID.TID 0000.0001) >  1226,
(PID.TID 0000.0001) >  1326,
(PID.TID 0000.0001) >  1426,
(PID.TID 0000.0001) >  1526,
(PID.TID 0000.0001) >  1626,
(PID.TID 0000.0001) >  1726,
(PID.TID 0000.0001) >  1826,
(PID.TID 0000.0001) >  1926,
(PID.TID 0000.0001) >  2026,
(PID.TID 0000.0001) >  2126,
(PID.TID 0000.0001) >  2226,
(PID.TID 0000.0001) >  2326,
(PID.TID 0000.0001) >  2426,
(PID.TID 0000.0001) >  2526,
(PID.TID 0000.0001) >  2626,
(PID.TID 0000.0001) >  2726,
(PID.TID 0000.0001) >  2826,
(PID.TID 0000.0001) >  2926,
(PID.TID 0000.0001) >  3026,
(PID.TID 0000.0001) >  3126,
(PID.TID 0000.0001) >  3226,
(PID.TID 0000.0001) >  3326,
(PID.TID 0000.0001) >  3426,
(PID.TID 0000.0001) >  3526,
(PID.TID 0000.0001) >  3626,
(PID.TID 0000.0001) >  3726,
(PID.TID 0000.0001) >  3826,
(PID.TID 0000.0001) >  3926,
(PID.TID 0000.0001) >  4026,
(PID.TID 0000.0001) >  4126,
(PID.TID 0000.0001) >  4226,
(PID.TID 0000.0001) >  4326,
(PID.TID 0000.0001) >  4426,
(PID.TID 0000.0001) >  4526,
(PID.TID 0000.0001) >  4626,
(PID.TID 0000.0001) >  4726,
(PID.TID 0000.0001) >  4826,
(PID.TID 0000.0001) >  4926,
(PID.TID 0000.0001) >  5026,
(PID.TID 0000.0001) >  5126,
(PID.TID 0000.0001) >  5226,
(PID.TID 0000.0001) >  5326,
(PID.TID 0000.0001) >  5426,
(PID.TID 0000.0001) >  5526,
(PID.TID 0000.0001) >  5626,
(PID.TID 0000.0001) >  5726,
(PID.TID 0000.0001) >  5826,
(PID.TID 0000.0001) >  5926,
(PID.TID 0000.0001) >  6026,
(PID.TID 0000.0001) >  6126,
(PID.TID 0000.0001) >  6226,
(PID.TID 0000.0001) >  6326,
(PID.TID 0000.0001) >  6426,
(PID.TID 0000.0001) >  6526,
(PID.TID 0000.0001) >  6626,
(PID.TID 0000.0001) >  6726,
(PID.TID 0000.0001) >  6826,
(PID.TID 0000.0001) >  6926,
(PID.TID 0000.0001) >  7026,
(PID.TID 0000.0001) >  7126,
(PID.TID 0000.0001) >  9126,
(PID.TID 0000.0001) >  9226,
(PID.TID 0000.0001) >  9326,
(PID.TID 0000.0001) >  9426,
(PID.TID 0000.0001) >  9526,
(PID.TID 0000.0001) >  9626,
(PID.TID 0000.0001) >  9726,
(PID.TID 0000.0001) >  9826,
(PID.TID 0000.0001) >  9926,
(PID.TID 0000.0001) >  27,
(PID.TID 0000.0001) >  127,
(PID.TID 0000.0001) >  227,
(PID.TID 0000.0001) >  327,
(PID.TID 0000.0001) >  427,
(PID.TID 0000.0001) >  527,
(PID.TID 0000.0001) >  627,
(PID.TID 0000.0001) >  727,
(PID.TID 0000.0001) >  827,
(PID.TID 0000.0001) >  927,
(PID.TID 0000.0001) >  1027,
(PID.TID 0000.0001) >  1127,
(PID.TID 0000.0001) >  1227,
(PID.TID 0000.0001) >  1327,
(PID.TID 0000.0001) >  1427,
(PID.TID 0000.0001) >  1527,
(PID.TID 0000.0001) >  1627,
(PID.TID 0000.0001) >  1727,
(PID.TID 0000.0001) >  1827,
(PID.TID 0000.0001) >  1927,
(PID.TID 0000.0001) >  2027,
(PID.TID 0000.0001) >  2127,
(PID.TID 0000.0001) >  2227,
(PID.TID 0000.0001) >  2327,
(PID.TID 0000.0001) >  2427,
(PID.TID 0000.0001) >  2527,
(PID.TID 0000.0001) >  2627,
(PID.TID 0000.0001) >  2727,
(PID.TID 0000.0001) >  2827,
(PID.TID 0000.0001) >  2927,
(PID.TID 0000.0001) >  3027,
(PID.TID 0000.0001) >  3127,
(PID.TID 0000.0001) >  3227,
(PID.TID 0000.0001) >  3327,
(PID.TID 0000.0001) >  3427,
(PID.TID 0000.0001) >  3527,
(PID.TID 0000.0001) >  3627,
(PID.TID 0000.0001) >  3727,
(PID.TID 0000.0001) >  3827,
(PID.TID 0000.0001) >  3927,
(PID.TID 0000.0001) >  4027,
(PID.TID 0000.0001) >  4127,
(PID.TID 0000.0001) >  4227,
(PID.TID 0000.0001) >  4327,
(PID.TID 0000.0001) >  4427,
(PID.TID 0000.0001) >  4527,
(PID.TID 0000.0001) >  4627,
(PID.TID 0000.0001) >  4727,
(PID.TID 0000.0001) >  4827,
(PID.TID 0000.0001) >  4927,
(PID.TID 0000.0001) >  5027,
(PID.TID 0000.0001) >  5127,
(PID.TID 0000.0001) >  5227,
(PID.TID 0000.0001) >  5327,
(PID.TID 0000.0001) >  5427,
(PID.TID 0000.0001) >  5527,
(PID.TID 0000.0001) >  5627,
(PID.TID 0000.0001) >  5727,
(PID.TID 0000.0001) >  5827,
(PID.TID 0000.0001) >  5927,
(PID.TID 0000.0001) >  6027,
(PID.TID 0000.0001) >  6127,
(PID.TID 0000.0001) >  6227,
(PID.TID 0000.0001) >  6327,
(PID.TID 0000.0001) >  6427,
(PID.TID 0000.0001) >  6527,
(PID.TID 0000.0001) >  6627,
(PID.TID 0000.0001) >  6727,
(PID.TID 0000.0001) >  6827,
(PID.TID 0000.0001) >  6927,
(PID.TID 0000.0001) >  7027,
(PID.TID 0000.0001) >  9127,
(PID.TID 0000.0001) >  9227,
(PID.TID 0000.0001) >  9327,
(PID.TID 0000.0001) >  9427,
(PID.TID 0000.0001) >  9527,
[...]
(PID.TID 0000.0001)  MDSREADFIELD_YZ_GL: opening file: xx_obcse.0000000000.035.034.data
(PID.TID 0000.0001)  MDSREADFIELD_YZ_GL: opening file: xx_obcse.0000000000.036.034.data
(PID.TID 0000.0001)  MDSREADFIELD_YZ_GL: opening file: xx_obcse.0000000000.037.034.data
(PID.TID 0000.0001)  MDSREADFIELD_YZ_GL: opening file: xx_obcse.0000000000.038.034.data
(PID.TID 0000.0001)  MDSREADFIELD_YZ_GL: opening file: xx_obcse.0000000000.039.034.data
(PID.TID 0000.0001)  MDSREADFIELD_YZ_GL: opening file: xx_obcse.0000000000.040.034.data
(PID.TID 0000.0001)  MDSREADFIELD_YZ_GL: opening file: xx_obcse.0000000000.041.034.data
(PID.TID 0000.0001)  MDSREADFIELD_YZ_GL: opening file: xx_obcse.0000000000.042.034.data
(PID.TID 0000.0001)  MDSREADFIELD_YZ_GL: opening file: xx_obcse.0000000000.043.034.data
(PID.TID 0000.0001)  MDSREADFIELD_YZ_GL: opening file: xx_obcse.0000000000.044.034.data
(PID.TID 0000.0001)  MDSREADFIELD_YZ_GL: opening file: xx_obcse.0000000000.045.034.data
(PID.TID 0000.0001)  MDSREADFIELD_YZ_GL: opening file: xx_obcse.0000000000.046.034.data
(PID.TID 0000.0001)  MDSREADFIELD_YZ_GL: opening file: xx_obcse.0000000000.001.035.data
(PID.TID 0000.0001)  MDSREADFIELD_YZ_GL: opening file: xx_obcse.0000000000.002.035.data
(PID.TID 0000.0001)  MDSREADFIELD_YZ_GL: opening file: xx_obcse.0000000000.003.035.data
(PID.TID 0000.0001)  MDSREADFIELD_YZ_GL: opening file: xx_obcse.0000000000.004.035.data
(PID.TID 0000.0001)  MDSREADFIELD_YZ_GL: opening file: xx_obcse.0000000000.005.035.data
(PID.TID 0000.0001)  MDSREADFIELD_YZ_GL: opening file: xx_obcse.0000000000.006.035.data
(PID.TID 0000.0001)  MDSREADFIELD_YZ_GL: opening file: xx_obcse.0000000000.007.035.data
(PID.TID 0000.0001)  MDSREADFIELD_YZ_GL: opening file: xx_obcse.0000000000.008.035.data
(PID.TID 0000.0001)  MDSREADFIELD_YZ_GL: opening file: xx_obcse.0000000000.009.035.data
(PID.TID 0000.0001)  MDSREADFIELD_YZ_GL: opening file: xx_obcse.0000000000.010.035.data
(PID.TID 0000.0001)  MDSREADFIELD_YZ_GL: opening file: xx_obcse.0000000000.011.035.data
(PID.TID 0000.0001)  MDSREADFIELD_YZ_GL: opening file: xx_obcse.0000000000.012.035.data
(PID.TID 0000.0001)  MDSREADFIELD_YZ_GL: opening file: xx_obcse.0000000000.013.035.data
(PID.TID 0000.0001)  MDSREADFIELD_YZ_GL: opening file: xx_obcse.0000000000.014.035.data
(PID.TID 0000.0001)  MDSREADFIELD_YZ_GL: opening file: xx_obcse.0000000000.015.035.data
(PID.TID 0000.0001)  MDSREADFIELD_YZ_GL: opening file: xx_obcse.0000000000.016.035.data
(PID.TID 0000.0001)  MDSREADFIELD_YZ_GL: opening file: xx_obcse.0000000000.017.035.data
(PID.TID 0000.0001)  MDSREADFIELD_YZ_GL: opening file: xx_obcse.0000000000.018.035.data
(PID.TID 0000.0001)  MDSREADFIELD_YZ_GL: opening file: xx_obcse.0000000000.019.035.data
(PID.TID 0000.0001)  MDSREADFIELD_YZ_GL: opening file: xx_obcse.0000000000.020.035.data
(PID.TID 0000.0001)  MDSREADFIELD_YZ_GL: opening file: xx_obcse.0000000000.021.035.data
(PID.TID 0000.0001)  MDSREADFIELD_YZ_GL: opening file: xx_obcse.0000000000.022.035.data
(PID.TID 0000.0001)  MDSREADFIELD_YZ_GL: opening file: xx_obcse.0000000000.023.035.data
(PID.TID 0000.0001)  MDSREADFIELD_YZ_GL: opening file: xx_obcse.0000000000.024.035.data
(PID.TID 0000.0001)  MDSREADFIELD_YZ_GL: opening file: xx_obcse.0000000000.025.035.data
(PID.TID 0000.0001)  MDSREADFIELD_YZ_GL: opening file: xx_obcse.0000000000.026.035.data
(PID.TID 0000.0001)  MDSREADFIELD_YZ_GL: opening file: xx_obcse.0000000000.027.035.data
(PID.TID 0000.0001)  MDSREADFIELD_YZ_GL: opening file: xx_obcse.0000000000.028.035.data
(PID.TID 0000.0001)  MDSREADFIELD_YZ_GL: opening file: xx_obcse.0000000000.029.035.data
(PID.TID 0000.0001)  MDSREADFIELD_YZ_GL: opening file: xx_obcse.0000000000.030.035.data
(PID.TID 0000.0001)  MDSREADFIELD_YZ_GL: opening file: xx_obcse.0000000000.031.035.data
(PID.TID 0000.0001)  MDSREADFIELD_YZ_GL: opening file: xx_obcse.0000000000.032.035.data
(PID.TID 0000.0001)  MDSREADFIELD_YZ_GL: opening file: xx_obcse.0000000000.033.035.data
(PID.TID 0000.0001)  MDSREADFIELD_YZ_GL: opening file: xx_obcse.0000000000.034.035.data
(PID.TID 0000.0001)  MDSREADFIELD_YZ_GL: opening file: xx_obcse.0000000000.035.035.data
(PID.TID 0000.0001)  MDSREADFIELD_YZ_GL: opening file: xx_obcse.0000000000.036.035.data
(PID.TID 0000.0001)  MDSREADFIELD_YZ_GL: opening file: xx_obcse.0000000000.037.035.data
(PID.TID 0000.0001)  MDSREADFIELD_YZ_GL: opening file: xx_obcse.0000000000.038.035.data
(PID.TID 0000.0001)  MDSREADFIELD_YZ_GL: opening file: xx_obcse.0000000000.039.035.data
(PID.TID 0000.0001)  MDSREADFIELD_YZ_GL: opening file: xx_obcse.0000000000.040.035.data
(PID.TID 0000.0001)  MDSREADFIELD_YZ_GL: opening file: xx_obcse.0000000000.041.035.data
(PID.TID 0000.0001)  MDSREADFIELD_YZ_GL: opening file: xx_obcse.0000000000.042.035.data
(PID.TID 0000.0001)  MDSREADFIELD_YZ_GL: opening file: xx_obcse.0000000000.043.035.data
(PID.TID 0000.0001)  MDSREADFIELD_YZ_GL: opening file: xx_obcse.0000000000.044.035.data
(PID.TID 0000.0001)  MDSREADFIELD_YZ_GL: opening file: xx_obcse.0000000000.045.035.data
(PID.TID 0000.0001)  MDSREADFIELD_YZ_GL: opening file: xx_obcse.0000000000.046.035.data
(PID.TID 0000.0001)  MDSREADFIELD_YZ_GL: opening file: xx_obcse.0000000000.001.036.data
(PID.TID 0000.0001)  MDSREADFIELD_YZ_GL: opening file: xx_obcse.0000000000.002.036.data
(PID.TID 0000.0001)  MDSREADFIELD_YZ_GL: opening file: xx_obcse.0000000000.003.036.data
(PID.TID 0000.0001)  MDSREADFIELD_YZ_GL: opening file: xx_obcse.0000000000.004.036.data
(PID.TID 0000.0001)  MDSREADFIELD_YZ_GL: opening file: xx_obcse.0000000000.005.036.data
(PID.TID 0000.0001)  MDSREADFIELD_YZ_GL: opening file: xx_obcse.0000000000.006.036.data
(PID.TID 0000.0001)  MDSREADFIELD_YZ_GL: opening file: xx_obcse.0000000000.007.036.data
(PID.TID 0000.0001)  MDSREADFIELD_YZ_GL: opening file: xx_obcse.0000000000.008.036.data
(PID.TID 0000.0001)  MDSREADFIELD_YZ_GL: opening file: xx_obcse.0000000000.009.036.data
(PID.TID 0000.0001)  MDSREADFIELD_YZ_GL: opening file: xx_obcse.0000000000.010.036.data
(PID.TID 0000.0001)  MDSREADFIELD_YZ_GL: opening file: xx_obcse.0000000000.011.036.data
(PID.TID 0000.0001)  MDSREADFIELD_YZ_GL: opening file: xx_obcse.0000000000.012.036.data
(PID.TID 0000.0001)  MDSREADFIELD_YZ_GL: opening file: xx_obcse.0000000000.013.036.data
(PID.TID 0000.0001)  MDSREADFIELD_YZ_GL: opening file: xx_obcse.0000000000.014.036.data
(PID.TID 0000.0001)  MDSREADFIELD_YZ_GL: opening file: xx_obcse.0000000000.015.036.data
(PID.TID 0000.0001)  MDSREADFIELD_YZ_GL: opening file: xx_obcse.0000000000.016.036.data
(PID.TID 0000.0001)  MDSREADFIELD_YZ_GL: opening file: xx_obcse.0000000000.017.036.data
(PID.TID 0000.0001)  MDSREADFIELD_YZ_GL: opening file: xx_obcse.0000000000.018.036.data
(PID.TID 0000.0001)  MDSREADFIELD_YZ_GL: opening file: xx_obcse.0000000000.019.036.data
(PID.TID 0000.0001)  MDSREADFIELD_YZ_GL: opening file: xx_obcse.0000000000.020.036.data
(PID.TID 0000.0001)  MDSREADFIELD_YZ_GL: opening file: xx_obcse.0000000000.021.036.data
(PID.TID 0000.0001)  MDSREADFIELD_YZ_GL: opening file: xx_obcse.0000000000.022.036.data
(PID.TID 0000.0001)  MDSREADFIELD_YZ_GL: opening file: xx_obcse.0000000000.023.036.data
(PID.TID 0000.0001)  MDSREADFIELD_YZ_GL: opening file: xx_obcse.0000000000.024.036.data
(PID.TID 0000.0001)  MDSREADFIELD_YZ_GL: opening file: xx_obcse.0000000000.025.036.data
(PID.TID 0000.0001)  MDSREADFIELD_YZ_GL: opening file: xx_obcse.0000000000.026.036.data
(PID.TID 0000.0001)  MDSREADFIELD_YZ_GL: opening file: xx_obcse.0000000000.027.036.data
(PID.TID 0000.0001)  MDSREADFIELD_YZ_GL: opening file: xx_obcse.0000000000.028.036.data
(PID.TID 0000.0001)  MDSREADFIELD_YZ_GL: opening file: xx_obcse.0000000000.029.036.data
(PID.TID 0000.0001)  MDSREADFIELD_YZ_GL: opening file: xx_obcse.0000000000.030.036.data
(PID.TID 0000.0001)  MDSREADFIELD_YZ_GL: opening file: xx_obcse.0000000000.031.036.data
(PID.TID 0000.0001)  MDSREADFIELD_YZ_GL: opening file: xx_obcse.0000000000.032.036.data
(PID.TID 0000.0001)  MDSREADFIELD_YZ_GL: opening file: xx_obcse.0000000000.033.036.data
(PID.TID 0000.0001)  MDSREADFIELD_YZ_GL: opening file: xx_obcse.0000000000.034.036.data
(PID.TID 0000.0001)  MDSREADFIELD_YZ_GL: opening file: xx_obcse.0000000000.035.036.data
(PID.TID 0000.0001)  MDSREADFIELD_YZ_GL: opening file: xx_obcse.0000000000.036.036.data
(PID.TID 0000.0001)  MDSREADFIELD_YZ_GL: opening file: xx_obcse.0000000000.037.036.data
(PID.TID 0000.0001)  MDSREADFIELD_YZ_GL: opening file: xx_obcse.0000000000.038.036.data
(PID.TID 0000.0001)  MDSREADFIELD_YZ_GL: opening file: xx_obcse.0000000000.039.036.data
(PID.TID 0000.0001)  MDSREADFIELD_YZ_GL: opening file: xx_obcse.0000000000.040.036.data
(PID.TID 0000.0001)  MDSREADFIELD_YZ_GL: opening file: xx_obcse.0000000000.041.036.data
(PID.TID 0000.0001)  MDSREADFIELD_YZ_GL: opening file: xx_obcse.0000000000.042.036.data
(PID.TID 0000.0001)  MDSREADFIELD_YZ_GL: opening file: xx_obcse.0000000000.043.036.data
(PID.TID 0000.0001)  MDSREADFIELD_YZ_GL: opening file: xx_obcse.0000000000.044.036.data
(PID.TID 0000.0001)  MDSREADFIELD_YZ_GL: opening file: xx_obcse.0000000000.045.036.data
(PID.TID 0000.0001)  MDSREADFIELD_YZ_GL: opening file: xx_obcse.0000000000.046.036.data
(PID.TID 0000.0001)   Seconds in section "ALL                    [THE_MODEL_MAIN]":
(PID.TID 0000.0001)           User time:   45.4207595288754
(PID.TID 0000.0001)         System time:  0.000000000000000E+000
(PID.TID 0000.0001)     Wall clock time:   95.1281609535217
(PID.TID 0000.0001)          No. starts:           1
(PID.TID 0000.0001)           No. stops:           1
(PID.TID 0000.0001)   Seconds in section "INITIALISE_FIXED       [THE_MODEL_MAIN]":
(PID.TID 0000.0001)           User time:   8.74012652039528
(PID.TID 0000.0001)         System time:  0.000000000000000E+000
(PID.TID 0000.0001)     Wall clock time:   15.5913360118866
(PID.TID 0000.0001)          No. starts:           1
(PID.TID 0000.0001)           No. stops:           1
(PID.TID 0000.0001)   Seconds in section "ADTHE_MAIN_LOOP       [ADJOINT RUN]":
(PID.TID 0000.0001)           User time:   35.2664747238159
(PID.TID 0000.0001)         System time:  0.000000000000000E+000
(PID.TID 0000.0001)     Wall clock time:   64.0496199131012
(PID.TID 0000.0001)          No. starts:           1
(PID.TID 0000.0001)           No. stops:           1
(PID.TID 0000.0001)   Seconds in section "FORWARD_STEP        [MAIN_DO_LOOP]":
(PID.TID 0000.0001)           User time:   4.12792873382568
(PID.TID 0000.0001)         System time:  0.000000000000000E+000
(PID.TID 0000.0001)     Wall clock time:   4.19483590126038
(PID.TID 0000.0001)          No. starts:           5
(PID.TID 0000.0001)           No. stops:           5
(PID.TID 0000.0001)   Seconds in section "LOAD_FIELDS_DRIVER  [FORWARD_STEP]":
(PID.TID 0000.0001)           User time:   3.30984687805176
(PID.TID 0000.0001)         System time:  0.000000000000000E+000
(PID.TID 0000.0001)     Wall clock time:   3.36446809768677
(PID.TID 0000.0001)          No. starts:           5
(PID.TID 0000.0001)           No. stops:           5
(PID.TID 0000.0001)   Seconds in section "EXF_GETFORCING     [LOAD_FLDS_DRIVER]":
(PID.TID 0000.0001)           User time:   3.30967807769775
(PID.TID 0000.0001)         System time:  0.000000000000000E+000
(PID.TID 0000.0001)     Wall clock time:   3.36428809165955
(PID.TID 0000.0001)          No. starts:           5
(PID.TID 0000.0001)           No. stops:           5
(PID.TID 0000.0001)   Seconds in section "EXTERNAL_FLDS_LOAD [LOAD_FLDS_DRIVER]":
(PID.TID 0000.0001)           User time:  1.716613769531250E-005
(PID.TID 0000.0001)         System time:  0.000000000000000E+000
(PID.TID 0000.0001)     Wall clock time:  2.002716064453125E-005
(PID.TID 0000.0001)          No. starts:           5
(PID.TID 0000.0001)           No. stops:           5
(PID.TID 0000.0001)   Seconds in section "CTRL_MAP_FORCING  [FORWARD_STEP]":
(PID.TID 0000.0001)           User time:  2.193450927734375E-004
(PID.TID 0000.0001)         System time:  0.000000000000000E+000
(PID.TID 0000.0001)     Wall clock time:  2.448558807373047E-004
(PID.TID 0000.0001)          No. starts:           5
(PID.TID 0000.0001)           No. stops:           5
(PID.TID 0000.0001)   Seconds in section "DO_ATMOSPHERIC_PHYS [FORWARD_STEP]":
(PID.TID 0000.0001)           User time:  1.459121704101562E-004
(PID.TID 0000.0001)         System time:  0.000000000000000E+000
(PID.TID 0000.0001)     Wall clock time:  1.609325408935547E-004
(PID.TID 0000.0001)          No. starts:           5
(PID.TID 0000.0001)           No. stops:           5
(PID.TID 0000.0001)   Seconds in section "DO_OCEANIC_PHYS     [FORWARD_STEP]":
(PID.TID 0000.0001)           User time:  3.196239471435547E-002
(PID.TID 0000.0001)         System time:  0.000000000000000E+000
(PID.TID 0000.0001)     Wall clock time:  3.320980072021484E-002
(PID.TID 0000.0001)          No. starts:           5
(PID.TID 0000.0001)           No. stops:           5
(PID.TID 0000.0001)   Seconds in section "KPP_CALC [DO_OCEANIC_PHYS]":
(PID.TID 0000.0001)           User time:  2.821636199951172E-002
(PID.TID 0000.0001)         System time:  0.000000000000000E+000
(PID.TID 0000.0001)     Wall clock time:  2.937579154968262E-002
(PID.TID 0000.0001)          No. starts:           5
(PID.TID 0000.0001)           No. stops:           5
(PID.TID 0000.0001)   Seconds in section "DYNAMICS            [FORWARD_STEP]":
(PID.TID 0000.0001)           User time:  3.265762329101562E-002
(PID.TID 0000.0001)         System time:  0.000000000000000E+000
(PID.TID 0000.0001)     Wall clock time:  3.600001335144043E-002
(PID.TID 0000.0001)          No. starts:           5
(PID.TID 0000.0001)           No. stops:           5
(PID.TID 0000.0001)   Seconds in section "SOLVE_FOR_PRESSURE  [FORWARD_STEP]":
(PID.TID 0000.0001)           User time:  0.489654541015625
(PID.TID 0000.0001)         System time:  0.000000000000000E+000
(PID.TID 0000.0001)     Wall clock time:  0.492278099060059
(PID.TID 0000.0001)          No. starts:           5
(PID.TID 0000.0001)           No. stops:           5
(PID.TID 0000.0001)   Seconds in section "MOM_CORRECTION_STEP [FORWARD_STEP]":
(PID.TID 0000.0001)           User time:  3.831863403320312E-003
(PID.TID 0000.0001)         System time:  0.000000000000000E+000
(PID.TID 0000.0001)     Wall clock time:  3.876924514770508E-003
(PID.TID 0000.0001)          No. starts:           5
(PID.TID 0000.0001)           No. stops:           5
(PID.TID 0000.0001)   Seconds in section "INTEGR_CONTINUITY   [FORWARD_STEP]":
(PID.TID 0000.0001)           User time:  3.588676452636719E-003
(PID.TID 0000.0001)         System time:  0.000000000000000E+000
(PID.TID 0000.0001)     Wall clock time:  3.775119781494141E-003
(PID.TID 0000.0001)          No. starts:           5
(PID.TID 0000.0001)           No. stops:           5
(PID.TID 0000.0001)   Seconds in section "BLOCKING_EXCHANGES  [FORWARD_STEP]":
(PID.TID 0000.0001)           User time:  6.198883056640625E-005
(PID.TID 0000.0001)         System time:  0.000000000000000E+000
(PID.TID 0000.0001)     Wall clock time:  7.009506225585938E-005
(PID.TID 0000.0001)          No. starts:          10
(PID.TID 0000.0001)           No. stops:          10
(PID.TID 0000.0001)   Seconds in section "THERMODYNAMICS      [FORWARD_STEP]":
(PID.TID 0000.0001)           User time:  7.827186584472656E-002
(PID.TID 0000.0001)         System time:  0.000000000000000E+000
(PID.TID 0000.0001)     Wall clock time:  8.083105087280273E-002
(PID.TID 0000.0001)          No. starts:           5
(PID.TID 0000.0001)           No. stops:           5
(PID.TID 0000.0001)   Seconds in section "TRC_CORRECTION_STEP [FORWARD_STEP]":
(PID.TID 0000.0001)           User time:  2.098083496093750E-005
(PID.TID 0000.0001)         System time:  0.000000000000000E+000
(PID.TID 0000.0001)     Wall clock time:  2.503395080566406E-005
(PID.TID 0000.0001)          No. starts:           5
(PID.TID 0000.0001)           No. stops:           5
(PID.TID 0000.0001)   Seconds in section "DO_STATEVARS_TAVE   [FORWARD_STEP]":
(PID.TID 0000.0001)           User time:  2.002716064453125E-005
(PID.TID 0000.0001)         System time:  0.000000000000000E+000
(PID.TID 0000.0001)     Wall clock time:  2.408027648925781E-005
(PID.TID 0000.0001)          No. starts:           5
(PID.TID 0000.0001)           No. stops:           5
(PID.TID 0000.0001)   Seconds in section "COST_TILE           [FORWARD_STEP]":
(PID.TID 0000.0001)           User time:  1.716613769531250E-005
(PID.TID 0000.0001)         System time:  0.000000000000000E+000
(PID.TID 0000.0001)     Wall clock time:  2.217292785644531E-005
(PID.TID 0000.0001)          No. starts:           5
(PID.TID 0000.0001)           No. stops:           5
(PID.TID 0000.0001)   Seconds in section "DO_THE_MODEL_IO     [FORWARD_STEP]":
(PID.TID 0000.0001)           User time:  4.100799560546875E-005
(PID.TID 0000.0001)         System time:  0.000000000000000E+000
(PID.TID 0000.0001)     Wall clock time:  3.290176391601562E-005
(PID.TID 0000.0001)          No. starts:           5
(PID.TID 0000.0001)           No. stops:           5
(PID.TID 0000.0001)   Seconds in section "DO_WRITE_PICKUP     [FORWARD_STEP]":
(PID.TID 0000.0001)           User time:  5.245208740234375E-005
(PID.TID 0000.0001)         System time:  0.000000000000000E+000
(PID.TID 0000.0001)     Wall clock time:  7.057189941406250E-005
(PID.TID 0000.0001)          No. starts:           5
(PID.TID 0000.0001)           No. stops:           5
(PID.TID 0000.0001)   Seconds in section "I/O (WRITE)        [ADJOINT LOOP]":
(PID.TID 0000.0001)           User time:   27.1601123809814
(PID.TID 0000.0001)         System time:  0.000000000000000E+000
(PID.TID 0000.0001)     Wall clock time:   51.6732630729675
(PID.TID 0000.0001)          No. starts:          26
(PID.TID 0000.0001)           No. stops:          26
(PID.TID 0000.0001)   Seconds in section "CTRL_PACK           [THE_MODEL_MAIN]":
(PID.TID 0000.0001)           User time:  0.726970672607422
(PID.TID 0000.0001)         System time:  0.000000000000000E+000
(PID.TID 0000.0001)     Wall clock time:   9.30289602279663
(PID.TID 0000.0001)          No. starts:           1
(PID.TID 0000.0001)           No. stops:           1
(PID.TID 0000.0001)   Seconds in section "CTRL_PACK     [THE_MODEL_MAIN]":
(PID.TID 0000.0001)           User time:  0.686981201171875
(PID.TID 0000.0001)         System time:  0.000000000000000E+000
(PID.TID 0000.0001)     Wall clock time:   6.17965888977051
(PID.TID 0000.0001)          No. starts:           1
(PID.TID 0000.0001)           No. stops:           1
(PID.TID 0000.0001) // ======================================================
(PID.TID 0000.0001) // Tile <-> Tile communication statistics
(PID.TID 0000.0001) // ======================================================
(PID.TID 0000.0001) // o Tile number: 000001
(PID.TID 0000.0001) //         No. X exchanges =              0
(PID.TID 0000.0001) //            Max. X spins =              0
(PID.TID 0000.0001) //            Min. X spins =     1000000000
(PID.TID 0000.0001) //          Total. X spins =              0
(PID.TID 0000.0001) //            Avg. X spins =       0.00E+00
(PID.TID 0000.0001) //         No. Y exchanges =              0
(PID.TID 0000.0001) //            Max. Y spins =              0
(PID.TID 0000.0001) //            Min. Y spins =     1000000000
(PID.TID 0000.0001) //          Total. Y spins =              0
(PID.TID 0000.0001) //            Avg. Y spins =       0.00E+00
(PID.TID 0000.0001) // o Thread number: 000001
(PID.TID 0000.0001) //            No. barriers =         126903
(PID.TID 0000.0001) //      Max. barrier spins =              1
(PID.TID 0000.0001) //      Min. barrier spins =              1
(PID.TID 0000.0001) //     Total barrier spins =         126903
(PID.TID 0000.0001) //      Avg. barrier spins =       1.00E+00
(PID.TID 0000.0001) DEBUG_MSG: LEAVING S/R THE_MODEL_MAIN
PROGRAM MAIN: Execution ended Normally
